optran: no such command available in ngspice

Compatibility modes selected: hs a

Warning: m=xx on .subckt line will override multiplier m hierarchy!

Warning: redefinition of .subckt sky130_fd_pr__model__parasitic__res_po, ignored
Warning: redefinition of .subckt sky130_fd_pr__res_xhigh_po, ignored
Warning: redefinition of .subckt sky130_fd_pr__res_high_po, ignored
Warning: redefinition of .subckt sky130_fd_pr__res_xhigh_po_0p35, ignored
Warning: redefinition of .subckt sky130_fd_pr__res_xhigh_po_0p69, ignored
Warning: redefinition of .subckt sky130_fd_pr__res_xhigh_po_1p41, ignored
Warning: redefinition of .subckt sky130_fd_pr__res_xhigh_po_2p85, ignored
Warning: redefinition of .subckt sky130_fd_pr__res_xhigh_po_5p73, ignored
Warning: redefinition of .subckt sky130_fd_pr__res_xhigh_po__base, ignored
Warning: redefinition of .subckt sky130_fd_pr__res_high_po_0p35, ignored
Warning: redefinition of .subckt sky130_fd_pr__res_high_po_0p69, ignored
Warning: redefinition of .subckt sky130_fd_pr__res_high_po_1p41, ignored
Warning: redefinition of .subckt sky130_fd_pr__res_high_po_2p85, ignored
Warning: redefinition of .subckt sky130_fd_pr__res_high_po_5p73, ignored
Warning: redefinition of .subckt sky130_fd_pr__pnp_05v5_w0p68l0p68, ignored
Warning: redefinition of .subckt sky130_fd_pr__res_generic_po, ignored
Warning: redefinition of .subckt sky130_fd_pr__res_generic_nd, ignored
Warning: redefinition of .subckt sky130_fd_pr__res_generic_pd, ignored

Circuit: * /home/choudharyabhi2015/esim-workspace/test_counter/test_counter.cir

option SCALE: Scale is set to 1e-06 for instance and model parameters
Reducing trtol to 1 for xspice 'A' devices
Doing analysis at TEMP = 27.000000 and TNOM = 27.000000

Warning: include: has no value, DC 0 assumed
Warning: v1: no DC value, transient time 0 value used
=============avishek_10bitcounter : New Iteration===========
Instance : 0

Inside foo before eval.....
clk=0
rst=0
count=0

Inside foo after eval.....
clk=0
rst=0
count=0
=============avishek_10bitcounter : New Iteration===========
Instance : 0

Inside foo before eval.....
clk=0
rst=0
count=0

Inside foo after eval.....
clk=0
rst=0
count=0
=============avishek_10bitcounter : New Iteration===========
Instance : 0

Inside foo before eval.....
clk=0
rst=0
count=0

Inside foo after eval.....
clk=1
rst=0
count=1
=============avishek_10bitcounter : New Iteration===========
Instance : 0

Inside foo before eval.....
clk=1
rst=0
count=1

Inside foo after eval.....
clk=1
rst=0
count=1
=============avishek_10bitcounter : New Iteration===========
Instance : 0

Inside foo before eval.....
clk=1
rst=0
count=1

Inside foo after eval.....
clk=1
rst=0
count=1
=============avishek_10bitcounter : New Iteration===========
Instance : 0

Inside foo before eval.....
clk=1
rst=0
count=1

Inside foo after eval.....
clk=0
rst=0
count=1
=============avishek_10bitcounter : New Iteration===========
Instance : 0

Inside foo before eval.....
clk=0
rst=0
count=1

Inside foo after eval.....
clk=1
rst=0
count=2
=============avishek_10bitcounter : New Iteration===========
Instance : 0

Inside foo before eval.....
clk=1
rst=0
count=2

Inside foo after eval.....
clk=1
rst=0
count=2
=============avishek_10bitcounter : New Iteration===========
Instance : 0

Inside foo before eval.....
clk=1
rst=0
count=2

Inside foo after eval.....
clk=1
rst=0
count=2
=============avishek_10bitcounter : New Iteration===========
Instance : 0

Inside foo before eval.....
clk=1
rst=0
count=2

Inside foo after eval.....
clk=0
rst=0
count=2
=============avishek_10bitcounter : New Iteration===========
Instance : 0

Inside foo before eval.....
clk=0
rst=0
count=2

Inside foo after eval.....
clk=1
rst=0
count=3
=============avishek_10bitcounter : New Iteration===========
Instance : 0

Inside foo before eval.....
clk=1
rst=0
count=3

Inside foo after eval.....
clk=1
rst=0
count=3
=============avishek_10bitcounter : New Iteration===========
Instance : 0

Inside foo before eval.....
clk=1
rst=0
count=3

Inside foo after eval.....
clk=1
rst=0
count=3
=============avishek_10bitcounter : New Iteration===========
Instance : 0

Inside foo before eval.....
clk=1
rst=0
count=3

Inside foo after eval.....
clk=0
rst=0
count=3
=============avishek_10bitcounter : New Iteration===========
Instance : 0

Inside foo before eval.....
clk=0
rst=0
count=3

Inside foo after eval.....
clk=1
rst=0
count=4
=============avishek_10bitcounter : New Iteration===========
Instance : 0

Inside foo before eval.....
clk=1
rst=0
count=4

Inside foo after eval.....
clk=1
rst=0
count=4
=============avishek_10bitcounter : New Iteration===========
Instance : 0

Inside foo before eval.....
clk=1
rst=0
count=4

Inside foo after eval.....
clk=1
rst=0
count=4
=============avishek_10bitcounter : New Iteration===========
Instance : 0

Inside foo before eval.....
clk=1
rst=0
count=4

Inside foo after eval.....
clk=0
rst=0
count=4
=============avishek_10bitcounter : New Iteration===========
Instance : 0

Inside foo before eval.....
clk=0
rst=0
count=4

Inside foo after eval.....
clk=1
rst=0
count=5
=============avishek_10bitcounter : New Iteration===========
Instance : 0

Inside foo before eval.....
clk=1
rst=0
count=5

Inside foo after eval.....
clk=1
rst=0
count=5
=============avishek_10bitcounter : New Iteration===========
Instance : 0

Inside foo before eval.....
clk=1
rst=0
count=5

Inside foo after eval.....
clk=1
rst=0
count=5
=============avishek_10bitcounter : New Iteration===========
Instance : 0

Inside foo before eval.....
clk=1
rst=0
count=5

Inside foo after eval.....
clk=0
rst=0
count=5
=============avishek_10bitcounter : New Iteration===========
Instance : 0

Inside foo before eval.....
clk=0
rst=0
count=5

Inside foo after eval.....
clk=1
rst=0
count=6
=============avishek_10bitcounter : New Iteration===========
Instance : 0

Inside foo before eval.....
clk=1
rst=0
count=6

Inside foo after eval.....
clk=1
rst=0
count=6
=============avishek_10bitcounter : New Iteration===========
Instance : 0

Inside foo before eval.....
clk=1
rst=0
count=6

Inside foo after eval.....
clk=1
rst=0
count=6
=============avishek_10bitcounter : New Iteration===========
Instance : 0

Inside foo before eval.....
clk=1
rst=0
count=6

Inside foo after eval.....
clk=0
rst=0
count=6
=============avishek_10bitcounter : New Iteration===========
Instance : 0

Inside foo before eval.....
clk=0
rst=0
count=6

Inside foo after eval.....
clk=1
rst=0
count=7
=============avishek_10bitcounter : New Iteration===========
Instance : 0

Inside foo before eval.....
clk=1
rst=0
count=7

Inside foo after eval.....
clk=1
rst=0
count=7
=============avishek_10bitcounter : New Iteration===========
Instance : 0

Inside foo before eval.....
clk=1
rst=0
count=7

Inside foo after eval.....
clk=1
rst=0
count=7
=============avishek_10bitcounter : New Iteration===========
Instance : 0

Inside foo before eval.....
clk=1
rst=0
count=7

Inside foo after eval.....
clk=0
rst=0
count=7
=============avishek_10bitcounter : New Iteration===========
Instance : 0

Inside foo before eval.....
clk=0
rst=0
count=7

Inside foo after eval.....
clk=1
rst=0
count=8
=============avishek_10bitcounter : New Iteration===========
Instance : 0

Inside foo before eval.....
clk=1
rst=0
count=8

Inside foo after eval.....
clk=1
rst=0
count=8
=============avishek_10bitcounter : New Iteration===========
Instance : 0

Inside foo before eval.....
clk=1
rst=0
count=8

Inside foo after eval.....
clk=1
rst=0
count=8
=============avishek_10bitcounter : New Iteration===========
Instance : 0

Inside foo before eval.....
clk=1
rst=0
count=8

Inside foo after eval.....
clk=0
rst=0
count=8
=============avishek_10bitcounter : New Iteration===========
Instance : 0

Inside foo before eval.....
clk=0
rst=0
count=8

Inside foo after eval.....
clk=1
rst=0
count=9
=============avishek_10bitcounter : New Iteration===========
Instance : 0

Inside foo before eval.....
clk=1
rst=0
count=9

Inside foo after eval.....
clk=1
rst=0
count=9
=============avishek_10bitcounter : New Iteration===========
Instance : 0

Inside foo before eval.....
clk=1
rst=0
count=9

Inside foo after eval.....
clk=1
rst=0
count=9
=============avishek_10bitcounter : New Iteration===========
Instance : 0

Inside foo before eval.....
clk=1
rst=0
count=9

Inside foo after eval.....
clk=0
rst=0
count=9
=============avishek_10bitcounter : New Iteration===========
Instance : 0

Inside foo before eval.....
clk=0
rst=0
count=9

Inside foo after eval.....
clk=1
rst=0
count=10
=============avishek_10bitcounter : New Iteration===========
Instance : 0

Inside foo before eval.....
clk=1
rst=0
count=10

Inside foo after eval.....
clk=1
rst=0
count=10
=============avishek_10bitcounter : New Iteration===========
Instance : 0

Inside foo before eval.....
clk=1
rst=0
count=10

Inside foo after eval.....
clk=1
rst=0
count=10
=============avishek_10bitcounter : New Iteration===========
Instance : 0

Inside foo before eval.....
clk=1
rst=0
count=10

Inside foo after eval.....
clk=0
rst=0
count=10
=============avishek_10bitcounter : New Iteration===========
Instance : 0

Inside foo before eval.....
clk=0
rst=0
count=10

Inside foo after eval.....
clk=1
rst=0
count=11
=============avishek_10bitcounter : New Iteration===========
Instance : 0

Inside foo before eval.....
clk=1
rst=0
count=11

Inside foo after eval.....
clk=1
rst=0
count=11
=============avishek_10bitcounter : New Iteration===========
Instance : 0

Inside foo before eval.....
clk=1
rst=0
count=11

Inside foo after eval.....
clk=1
rst=0
count=11
=============avishek_10bitcounter : New Iteration===========
Instance : 0

Inside foo before eval.....
clk=1
rst=0
count=11

Inside foo after eval.....
clk=0
rst=0
count=11
=============avishek_10bitcounter : New Iteration===========
Instance : 0

Inside foo before eval.....
clk=0
rst=0
count=11

Inside foo after eval.....
clk=1
rst=0
count=12
=============avishek_10bitcounter : New Iteration===========
Instance : 0

Inside foo before eval.....
clk=1
rst=0
count=12

Inside foo after eval.....
clk=1
rst=0
count=12
=============avishek_10bitcounter : New Iteration===========
Instance : 0

Inside foo before eval.....
clk=1
rst=0
count=12

Inside foo after eval.....
clk=1
rst=0
count=12
=============avishek_10bitcounter : New Iteration===========
Instance : 0

Inside foo before eval.....
clk=1
rst=0
count=12

Inside foo after eval.....
clk=0
rst=0
count=12
=============avishek_10bitcounter : New Iteration===========
Instance : 0

Inside foo before eval.....
clk=0
rst=0
count=12

Inside foo after eval.....
clk=1
rst=0
count=13
=============avishek_10bitcounter : New Iteration===========
Instance : 0

Inside foo before eval.....
clk=1
rst=0
count=13

Inside foo after eval.....
clk=1
rst=0
count=13
=============avishek_10bitcounter : New Iteration===========
Instance : 0

Inside foo before eval.....
clk=1
rst=0
count=13

Inside foo after eval.....
clk=1
rst=0
count=13
=============avishek_10bitcounter : New Iteration===========
Instance : 0

Inside foo before eval.....
clk=1
rst=0
count=13

Inside foo after eval.....
clk=0
rst=0
count=13
=============avishek_10bitcounter : New Iteration===========
Instance : 0

Inside foo before eval.....
clk=0
rst=0
count=13

Inside foo after eval.....
clk=1
rst=0
count=14
=============avishek_10bitcounter : New Iteration===========
Instance : 0

Inside foo before eval.....
clk=1
rst=0
count=14

Inside foo after eval.....
clk=1
rst=0
count=14
=============avishek_10bitcounter : New Iteration===========
Instance : 0

Inside foo before eval.....
clk=1
rst=0
count=14

Inside foo after eval.....
clk=1
rst=0
count=14
=============avishek_10bitcounter : New Iteration===========
Instance : 0

Inside foo before eval.....
clk=1
rst=0
count=14

Inside foo after eval.....
clk=0
rst=0
count=14
=============avishek_10bitcounter : New Iteration===========
Instance : 0

Inside foo before eval.....
clk=0
rst=0
count=14

Inside foo after eval.....
clk=1
rst=0
count=15
=============avishek_10bitcounter : New Iteration===========
Instance : 0

Inside foo before eval.....
clk=1
rst=0
count=15

Inside foo after eval.....
clk=1
rst=0
count=15
=============avishek_10bitcounter : New Iteration===========
Instance : 0

Inside foo before eval.....
clk=1
rst=0
count=15

Inside foo after eval.....
clk=1
rst=0
count=15
=============avishek_10bitcounter : New Iteration===========
Instance : 0

Inside foo before eval.....
clk=1
rst=0
count=15

Inside foo after eval.....
clk=0
rst=0
count=15
=============avishek_10bitcounter : New Iteration===========
Instance : 0

Inside foo before eval.....
clk=0
rst=0
count=15

Inside foo after eval.....
clk=1
rst=0
count=16
=============avishek_10bitcounter : New Iteration===========
Instance : 0

Inside foo before eval.....
clk=1
rst=0
count=16

Inside foo after eval.....
clk=1
rst=0
count=16
=============avishek_10bitcounter : New Iteration===========
Instance : 0

Inside foo before eval.....
clk=1
rst=0
count=16

Inside foo after eval.....
clk=1
rst=0
count=16
=============avishek_10bitcounter : New Iteration===========
Instance : 0

Inside foo before eval.....
clk=1
rst=0
count=16

Inside foo after eval.....
clk=0
rst=0
count=16
=============avishek_10bitcounter : New Iteration===========
Instance : 0

Inside foo before eval.....
clk=0
rst=0
count=16

Inside foo after eval.....
clk=1
rst=0
count=17
=============avishek_10bitcounter : New Iteration===========
Instance : 0

Inside foo before eval.....
clk=1
rst=0
count=17

Inside foo after eval.....
clk=1
rst=0
count=17
=============avishek_10bitcounter : New Iteration===========
Instance : 0

Inside foo before eval.....
clk=1
rst=0
count=17

Inside foo after eval.....
clk=1
rst=0
count=17
=============avishek_10bitcounter : New Iteration===========
Instance : 0

Inside foo before eval.....
clk=1
rst=0
count=17

Inside foo after eval.....
clk=0
rst=0
count=17
=============avishek_10bitcounter : New Iteration===========
Instance : 0

Inside foo before eval.....
clk=0
rst=0
count=17

Inside foo after eval.....
clk=1
rst=0
count=18
=============avishek_10bitcounter : New Iteration===========
Instance : 0

Inside foo before eval.....
clk=1
rst=0
count=18

Inside foo after eval.....
clk=1
rst=0
count=18
=============avishek_10bitcounter : New Iteration===========
Instance : 0

Inside foo before eval.....
clk=1
rst=0
count=18

Inside foo after eval.....
clk=1
rst=0
count=18
=============avishek_10bitcounter : New Iteration===========
Instance : 0

Inside foo before eval.....
clk=1
rst=0
count=18

Inside foo after eval.....
clk=0
rst=0
count=18
=============avishek_10bitcounter : New Iteration===========
Instance : 0

Inside foo before eval.....
clk=0
rst=0
count=18

Inside foo after eval.....
clk=1
rst=0
count=19
=============avishek_10bitcounter : New Iteration===========
Instance : 0

Inside foo before eval.....
clk=1
rst=0
count=19

Inside foo after eval.....
clk=1
rst=0
count=19
=============avishek_10bitcounter : New Iteration===========
Instance : 0

Inside foo before eval.....
clk=1
rst=0
count=19

Inside foo after eval.....
clk=1
rst=0
count=19
=============avishek_10bitcounter : New Iteration===========
Instance : 0

Inside foo before eval.....
clk=1
rst=0
count=19

Inside foo after eval.....
clk=0
rst=0
count=19
=============avishek_10bitcounter : New Iteration===========
Instance : 0

Inside foo before eval.....
clk=0
rst=0
count=19

Inside foo after eval.....
clk=1
rst=0
count=20
=============avishek_10bitcounter : New Iteration===========
Instance : 0

Inside foo before eval.....
clk=1
rst=0
count=20

Inside foo after eval.....
clk=1
rst=0
count=20
=============avishek_10bitcounter : New Iteration===========
Instance : 0

Inside foo before eval.....
clk=1
rst=0
count=20

Inside foo after eval.....
clk=1
rst=0
count=20
=============avishek_10bitcounter : New Iteration===========
Instance : 0

Inside foo before eval.....
clk=1
rst=0
count=20

Inside foo after eval.....
clk=0
rst=0
count=20
=============avishek_10bitcounter : New Iteration===========
Instance : 0

Inside foo before eval.....
clk=0
rst=0
count=20

Inside foo after eval.....
clk=1
rst=0
count=21
=============avishek_10bitcounter : New Iteration===========
Instance : 0

Inside foo before eval.....
clk=1
rst=0
count=21

Inside foo after eval.....
clk=1
rst=0
count=21
=============avishek_10bitcounter : New Iteration===========
Instance : 0

Inside foo before eval.....
clk=1
rst=0
count=21

Inside foo after eval.....
clk=1
rst=0
count=21
=============avishek_10bitcounter : New Iteration===========
Instance : 0

Inside foo before eval.....
clk=1
rst=0
count=21

Inside foo after eval.....
clk=0
rst=0
count=21
=============avishek_10bitcounter : New Iteration===========
Instance : 0

Inside foo before eval.....
clk=0
rst=0
count=21

Inside foo after eval.....
clk=1
rst=0
count=22
=============avishek_10bitcounter : New Iteration===========
Instance : 0

Inside foo before eval.....
clk=1
rst=0
count=22

Inside foo after eval.....
clk=1
rst=0
count=22
=============avishek_10bitcounter : New Iteration===========
Instance : 0

Inside foo before eval.....
clk=1
rst=0
count=22

Inside foo after eval.....
clk=1
rst=0
count=22
=============avishek_10bitcounter : New Iteration===========
Instance : 0

Inside foo before eval.....
clk=1
rst=0
count=22

Inside foo after eval.....
clk=0
rst=0
count=22
=============avishek_10bitcounter : New Iteration===========
Instance : 0

Inside foo before eval.....
clk=0
rst=0
count=22

Inside foo after eval.....
clk=1
rst=0
count=23
=============avishek_10bitcounter : New Iteration===========
Instance : 0

Inside foo before eval.....
clk=1
rst=0
count=23

Inside foo after eval.....
clk=1
rst=0
count=23
=============avishek_10bitcounter : New Iteration===========
Instance : 0

Inside foo before eval.....
clk=1
rst=0
count=23

Inside foo after eval.....
clk=1
rst=0
count=23
=============avishek_10bitcounter : New Iteration===========
Instance : 0

Inside foo before eval.....
clk=1
rst=0
count=23

Inside foo after eval.....
clk=0
rst=0
count=23
=============avishek_10bitcounter : New Iteration===========
Instance : 0

Inside foo before eval.....
clk=0
rst=0
count=23

Inside foo after eval.....
clk=1
rst=0
count=24
=============avishek_10bitcounter : New Iteration===========
Instance : 0

Inside foo before eval.....
clk=1
rst=0
count=24

Inside foo after eval.....
clk=1
rst=0
count=24
=============avishek_10bitcounter : New Iteration===========
Instance : 0

Inside foo before eval.....
clk=1
rst=0
count=24

Inside foo after eval.....
clk=1
rst=0
count=24
=============avishek_10bitcounter : New Iteration===========
Instance : 0

Inside foo before eval.....
clk=1
rst=0
count=24

Inside foo after eval.....
clk=0
rst=0
count=24
=============avishek_10bitcounter : New Iteration===========
Instance : 0

Inside foo before eval.....
clk=0
rst=0
count=24

Inside foo after eval.....
clk=1
rst=0
count=25
=============avishek_10bitcounter : New Iteration===========
Instance : 0

Inside foo before eval.....
clk=1
rst=0
count=25

Inside foo after eval.....
clk=1
rst=0
count=25
=============avishek_10bitcounter : New Iteration===========
Instance : 0

Inside foo before eval.....
clk=1
rst=0
count=25

Inside foo after eval.....
clk=1
rst=0
count=25
=============avishek_10bitcounter : New Iteration===========
Instance : 0

Inside foo before eval.....
clk=1
rst=0
count=25

Inside foo after eval.....
clk=0
rst=0
count=25
=============avishek_10bitcounter : New Iteration===========
Instance : 0

Inside foo before eval.....
clk=0
rst=0
count=25

Inside foo after eval.....
clk=1
rst=0
count=26
=============avishek_10bitcounter : New Iteration===========
Instance : 0

Inside foo before eval.....
clk=1
rst=0
count=26

Inside foo after eval.....
clk=1
rst=0
count=26
=============avishek_10bitcounter : New Iteration===========
Instance : 0

Inside foo before eval.....
clk=1
rst=0
count=26

Inside foo after eval.....
clk=1
rst=0
count=26
=============avishek_10bitcounter : New Iteration===========
Instance : 0

Inside foo before eval.....
clk=1
rst=0
count=26

Inside foo after eval.....
clk=0
rst=0
count=26
=============avishek_10bitcounter : New Iteration===========
Instance : 0

Inside foo before eval.....
clk=0
rst=0
count=26

Inside foo after eval.....
clk=1
rst=0
count=27
=============avishek_10bitcounter : New Iteration===========
Instance : 0

Inside foo before eval.....
clk=1
rst=0
count=27

Inside foo after eval.....
clk=1
rst=0
count=27
=============avishek_10bitcounter : New Iteration===========
Instance : 0

Inside foo before eval.....
clk=1
rst=0
count=27

Inside foo after eval.....
clk=1
rst=0
count=27
=============avishek_10bitcounter : New Iteration===========
Instance : 0

Inside foo before eval.....
clk=1
rst=0
count=27

Inside foo after eval.....
clk=0
rst=0
count=27
=============avishek_10bitcounter : New Iteration===========
Instance : 0

Inside foo before eval.....
clk=0
rst=0
count=27

Inside foo after eval.....
clk=1
rst=0
count=28
=============avishek_10bitcounter : New Iteration===========
Instance : 0

Inside foo before eval.....
clk=1
rst=0
count=28

Inside foo after eval.....
clk=1
rst=0
count=28
=============avishek_10bitcounter : New Iteration===========
Instance : 0

Inside foo before eval.....
clk=1
rst=0
count=28

Inside foo after eval.....
clk=1
rst=0
count=28
=============avishek_10bitcounter : New Iteration===========
Instance : 0

Inside foo before eval.....
clk=1
rst=0
count=28

Inside foo after eval.....
clk=0
rst=0
count=28
=============avishek_10bitcounter : New Iteration===========
Instance : 0

Inside foo before eval.....
clk=0
rst=0
count=28

Inside foo after eval.....
clk=1
rst=0
count=29
=============avishek_10bitcounter : New Iteration===========
Instance : 0

Inside foo before eval.....
clk=1
rst=0
count=29

Inside foo after eval.....
clk=1
rst=0
count=29
=============avishek_10bitcounter : New Iteration===========
Instance : 0

Inside foo before eval.....
clk=1
rst=0
count=29

Inside foo after eval.....
clk=1
rst=0
count=29
=============avishek_10bitcounter : New Iteration===========
Instance : 0

Inside foo before eval.....
clk=1
rst=0
count=29

Inside foo after eval.....
clk=0
rst=0
count=29
=============avishek_10bitcounter : New Iteration===========
Instance : 0

Inside foo before eval.....
clk=0
rst=0
count=29

Inside foo after eval.....
clk=1
rst=0
count=30
=============avishek_10bitcounter : New Iteration===========
Instance : 0

Inside foo before eval.....
clk=1
rst=0
count=30

Inside foo after eval.....
clk=1
rst=0
count=30
=============avishek_10bitcounter : New Iteration===========
Instance : 0

Inside foo before eval.....
clk=1
rst=0
count=30

Inside foo after eval.....
clk=1
rst=0
count=30
=============avishek_10bitcounter : New Iteration===========
Instance : 0

Inside foo before eval.....
clk=1
rst=0
count=30

Inside foo after eval.....
clk=0
rst=0
count=30
=============avishek_10bitcounter : New Iteration===========
Instance : 0

Inside foo before eval.....
clk=0
rst=0
count=30

Inside foo after eval.....
clk=1
rst=0
count=31
=============avishek_10bitcounter : New Iteration===========
Instance : 0

Inside foo before eval.....
clk=1
rst=0
count=31

Inside foo after eval.....
clk=1
rst=0
count=31
=============avishek_10bitcounter : New Iteration===========
Instance : 0

Inside foo before eval.....
clk=1
rst=0
count=31

Inside foo after eval.....
clk=1
rst=0
count=31
=============avishek_10bitcounter : New Iteration===========
Instance : 0

Inside foo before eval.....
clk=1
rst=0
count=31

Inside foo after eval.....
clk=0
rst=0
count=31
=============avishek_10bitcounter : New Iteration===========
Instance : 0

Inside foo before eval.....
clk=0
rst=0
count=31

Inside foo after eval.....
clk=1
rst=0
count=32
=============avishek_10bitcounter : New Iteration===========
Instance : 0

Inside foo before eval.....
clk=1
rst=0
count=32

Inside foo after eval.....
clk=1
rst=0
count=32
=============avishek_10bitcounter : New Iteration===========
Instance : 0

Inside foo before eval.....
clk=1
rst=0
count=32

Inside foo after eval.....
clk=1
rst=0
count=32
=============avishek_10bitcounter : New Iteration===========
Instance : 0

Inside foo before eval.....
clk=1
rst=0
count=32

Inside foo after eval.....
clk=0
rst=0
count=32
=============avishek_10bitcounter : New Iteration===========
Instance : 0

Inside foo before eval.....
clk=0
rst=0
count=32

Inside foo after eval.....
clk=1
rst=0
count=33
=============avishek_10bitcounter : New Iteration===========
Instance : 0

Inside foo before eval.....
clk=1
rst=0
count=33

Inside foo after eval.....
clk=1
rst=0
count=33
=============avishek_10bitcounter : New Iteration===========
Instance : 0

Inside foo before eval.....
clk=1
rst=0
count=33

Inside foo after eval.....
clk=1
rst=0
count=33
=============avishek_10bitcounter : New Iteration===========
Instance : 0

Inside foo before eval.....
clk=1
rst=0
count=33

Inside foo after eval.....
clk=0
rst=0
count=33
=============avishek_10bitcounter : New Iteration===========
Instance : 0

Inside foo before eval.....
clk=0
rst=0
count=33

Inside foo after eval.....
clk=1
rst=0
count=34
=============avishek_10bitcounter : New Iteration===========
Instance : 0

Inside foo before eval.....
clk=1
rst=0
count=34

Inside foo after eval.....
clk=1
rst=0
count=34
=============avishek_10bitcounter : New Iteration===========
Instance : 0

Inside foo before eval.....
clk=1
rst=0
count=34

Inside foo after eval.....
clk=1
rst=0
count=34
=============avishek_10bitcounter : New Iteration===========
Instance : 0

Inside foo before eval.....
clk=1
rst=0
count=34

Inside foo after eval.....
clk=0
rst=0
count=34
=============avishek_10bitcounter : New Iteration===========
Instance : 0

Inside foo before eval.....
clk=0
rst=0
count=34

Inside foo after eval.....
clk=1
rst=0
count=35
=============avishek_10bitcounter : New Iteration===========
Instance : 0

Inside foo before eval.....
clk=1
rst=0
count=35

Inside foo after eval.....
clk=1
rst=0
count=35
=============avishek_10bitcounter : New Iteration===========
Instance : 0

Inside foo before eval.....
clk=1
rst=0
count=35

Inside foo after eval.....
clk=1
rst=0
count=35
=============avishek_10bitcounter : New Iteration===========
Instance : 0

Inside foo before eval.....
clk=1
rst=0
count=35

Inside foo after eval.....
clk=0
rst=0
count=35
=============avishek_10bitcounter : New Iteration===========
Instance : 0

Inside foo before eval.....
clk=0
rst=0
count=35

Inside foo after eval.....
clk=1
rst=0
count=36
=============avishek_10bitcounter : New Iteration===========
Instance : 0

Inside foo before eval.....
clk=1
rst=0
count=36

Inside foo after eval.....
clk=1
rst=0
count=36
=============avishek_10bitcounter : New Iteration===========
Instance : 0

Inside foo before eval.....
clk=1
rst=0
count=36

Inside foo after eval.....
clk=1
rst=0
count=36
=============avishek_10bitcounter : New Iteration===========
Instance : 0

Inside foo before eval.....
clk=1
rst=0
count=36

Inside foo after eval.....
clk=0
rst=0
count=36
=============avishek_10bitcounter : New Iteration===========
Instance : 0

Inside foo before eval.....
clk=0
rst=0
count=36

Inside foo after eval.....
clk=1
rst=0
count=37
=============avishek_10bitcounter : New Iteration===========
Instance : 0

Inside foo before eval.....
clk=1
rst=0
count=37

Inside foo after eval.....
clk=1
rst=0
count=37
=============avishek_10bitcounter : New Iteration===========
Instance : 0

Inside foo before eval.....
clk=1
rst=0
count=37

Inside foo after eval.....
clk=1
rst=0
count=37
=============avishek_10bitcounter : New Iteration===========
Instance : 0

Inside foo before eval.....
clk=1
rst=0
count=37

Inside foo after eval.....
clk=0
rst=0
count=37
=============avishek_10bitcounter : New Iteration===========
Instance : 0

Inside foo before eval.....
clk=0
rst=0
count=37

Inside foo after eval.....
clk=1
rst=0
count=38
=============avishek_10bitcounter : New Iteration===========
Instance : 0

Inside foo before eval.....
clk=1
rst=0
count=38

Inside foo after eval.....
clk=1
rst=0
count=38
=============avishek_10bitcounter : New Iteration===========
Instance : 0

Inside foo before eval.....
clk=1
rst=0
count=38

Inside foo after eval.....
clk=1
rst=0
count=38
=============avishek_10bitcounter : New Iteration===========
Instance : 0

Inside foo before eval.....
clk=1
rst=0
count=38

Inside foo after eval.....
clk=0
rst=0
count=38
=============avishek_10bitcounter : New Iteration===========
Instance : 0

Inside foo before eval.....
clk=0
rst=0
count=38

Inside foo after eval.....
clk=1
rst=0
count=39
=============avishek_10bitcounter : New Iteration===========
Instance : 0

Inside foo before eval.....
clk=1
rst=0
count=39

Inside foo after eval.....
clk=1
rst=0
count=39
=============avishek_10bitcounter : New Iteration===========
Instance : 0

Inside foo before eval.....
clk=1
rst=0
count=39

Inside foo after eval.....
clk=1
rst=0
count=39
=============avishek_10bitcounter : New Iteration===========
Instance : 0

Inside foo before eval.....
clk=1
rst=0
count=39

Inside foo after eval.....
clk=0
rst=0
count=39
=============avishek_10bitcounter : New Iteration===========
Instance : 0

Inside foo before eval.....
clk=0
rst=0
count=39

Inside foo after eval.....
clk=1
rst=0
count=40
=============avishek_10bitcounter : New Iteration===========
Instance : 0

Inside foo before eval.....
clk=1
rst=0
count=40

Inside foo after eval.....
clk=1
rst=0
count=40
=============avishek_10bitcounter : New Iteration===========
Instance : 0

Inside foo before eval.....
clk=1
rst=0
count=40

Inside foo after eval.....
clk=1
rst=0
count=40
=============avishek_10bitcounter : New Iteration===========
Instance : 0

Inside foo before eval.....
clk=1
rst=0
count=40

Inside foo after eval.....
clk=0
rst=0
count=40
=============avishek_10bitcounter : New Iteration===========
Instance : 0

Inside foo before eval.....
clk=0
rst=0
count=40

Inside foo after eval.....
clk=1
rst=0
count=41
=============avishek_10bitcounter : New Iteration===========
Instance : 0

Inside foo before eval.....
clk=1
rst=0
count=41

Inside foo after eval.....
clk=1
rst=0
count=41
=============avishek_10bitcounter : New Iteration===========
Instance : 0

Inside foo before eval.....
clk=1
rst=0
count=41

Inside foo after eval.....
clk=1
rst=0
count=41
=============avishek_10bitcounter : New Iteration===========
Instance : 0

Inside foo before eval.....
clk=1
rst=0
count=41

Inside foo after eval.....
clk=0
rst=0
count=41
=============avishek_10bitcounter : New Iteration===========
Instance : 0

Inside foo before eval.....
clk=0
rst=0
count=41

Inside foo after eval.....
clk=1
rst=0
count=42
=============avishek_10bitcounter : New Iteration===========
Instance : 0

Inside foo before eval.....
clk=1
rst=0
count=42

Inside foo after eval.....
clk=1
rst=0
count=42
=============avishek_10bitcounter : New Iteration===========
Instance : 0

Inside foo before eval.....
clk=1
rst=0
count=42

Inside foo after eval.....
clk=1
rst=0
count=42
=============avishek_10bitcounter : New Iteration===========
Instance : 0

Inside foo before eval.....
clk=1
rst=0
count=42

Inside foo after eval.....
clk=0
rst=0
count=42
=============avishek_10bitcounter : New Iteration===========
Instance : 0

Inside foo before eval.....
clk=0
rst=0
count=42

Inside foo after eval.....
clk=1
rst=0
count=43
=============avishek_10bitcounter : New Iteration===========
Instance : 0

Inside foo before eval.....
clk=1
rst=0
count=43

Inside foo after eval.....
clk=1
rst=0
count=43
=============avishek_10bitcounter : New Iteration===========
Instance : 0

Inside foo before eval.....
clk=1
rst=0
count=43

Inside foo after eval.....
clk=1
rst=0
count=43
=============avishek_10bitcounter : New Iteration===========
Instance : 0

Inside foo before eval.....
clk=1
rst=0
count=43

Inside foo after eval.....
clk=0
rst=0
count=43
=============avishek_10bitcounter : New Iteration===========
Instance : 0

Inside foo before eval.....
clk=0
rst=0
count=43

Inside foo after eval.....
clk=1
rst=0
count=44
=============avishek_10bitcounter : New Iteration===========
Instance : 0

Inside foo before eval.....
clk=1
rst=0
count=44

Inside foo after eval.....
clk=1
rst=0
count=44
=============avishek_10bitcounter : New Iteration===========
Instance : 0

Inside foo before eval.....
clk=1
rst=0
count=44

Inside foo after eval.....
clk=1
rst=0
count=44
=============avishek_10bitcounter : New Iteration===========
Instance : 0

Inside foo before eval.....
clk=1
rst=0
count=44

Inside foo after eval.....
clk=0
rst=0
count=44
=============avishek_10bitcounter : New Iteration===========
Instance : 0

Inside foo before eval.....
clk=0
rst=0
count=44

Inside foo after eval.....
clk=1
rst=0
count=45
=============avishek_10bitcounter : New Iteration===========
Instance : 0

Inside foo before eval.....
clk=1
rst=0
count=45

Inside foo after eval.....
clk=1
rst=0
count=45
=============avishek_10bitcounter : New Iteration===========
Instance : 0

Inside foo before eval.....
clk=1
rst=0
count=45

Inside foo after eval.....
clk=1
rst=0
count=45
=============avishek_10bitcounter : New Iteration===========
Instance : 0

Inside foo before eval.....
clk=1
rst=0
count=45

Inside foo after eval.....
clk=0
rst=0
count=45
=============avishek_10bitcounter : New Iteration===========
Instance : 0

Inside foo before eval.....
clk=0
rst=0
count=45

Inside foo after eval.....
clk=1
rst=0
count=46
=============avishek_10bitcounter : New Iteration===========
Instance : 0

Inside foo before eval.....
clk=1
rst=0
count=46

Inside foo after eval.....
clk=1
rst=0
count=46
=============avishek_10bitcounter : New Iteration===========
Instance : 0

Inside foo before eval.....
clk=1
rst=0
count=46

Inside foo after eval.....
clk=1
rst=0
count=46
=============avishek_10bitcounter : New Iteration===========
Instance : 0

Inside foo before eval.....
clk=1
rst=0
count=46

Inside foo after eval.....
clk=0
rst=0
count=46
=============avishek_10bitcounter : New Iteration===========
Instance : 0

Inside foo before eval.....
clk=0
rst=0
count=46

Inside foo after eval.....
clk=1
rst=0
count=47
=============avishek_10bitcounter : New Iteration===========
Instance : 0

Inside foo before eval.....
clk=1
rst=0
count=47

Inside foo after eval.....
clk=1
rst=0
count=47
=============avishek_10bitcounter : New Iteration===========
Instance : 0

Inside foo before eval.....
clk=1
rst=0
count=47

Inside foo after eval.....
clk=1
rst=0
count=47
=============avishek_10bitcounter : New Iteration===========
Instance : 0

Inside foo before eval.....
clk=1
rst=0
count=47

Inside foo after eval.....
clk=0
rst=0
count=47
=============avishek_10bitcounter : New Iteration===========
Instance : 0

Inside foo before eval.....
clk=0
rst=0
count=47

Inside foo after eval.....
clk=1
rst=0
count=48
=============avishek_10bitcounter : New Iteration===========
Instance : 0

Inside foo before eval.....
clk=1
rst=0
count=48

Inside foo after eval.....
clk=1
rst=0
count=48
=============avishek_10bitcounter : New Iteration===========
Instance : 0

Inside foo before eval.....
clk=1
rst=0
count=48

Inside foo after eval.....
clk=1
rst=0
count=48
=============avishek_10bitcounter : New Iteration===========
Instance : 0

Inside foo before eval.....
clk=1
rst=0
count=48

Inside foo after eval.....
clk=0
rst=0
count=48
=============avishek_10bitcounter : New Iteration===========
Instance : 0

Inside foo before eval.....
clk=0
rst=0
count=48

Inside foo after eval.....
clk=1
rst=0
count=49
=============avishek_10bitcounter : New Iteration===========
Instance : 0

Inside foo before eval.....
clk=1
rst=0
count=49

Inside foo after eval.....
clk=1
rst=0
count=49
=============avishek_10bitcounter : New Iteration===========
Instance : 0

Inside foo before eval.....
clk=1
rst=0
count=49

Inside foo after eval.....
clk=1
rst=0
count=49
=============avishek_10bitcounter : New Iteration===========
Instance : 0

Inside foo before eval.....
clk=1
rst=0
count=49

Inside foo after eval.....
clk=0
rst=0
count=49
=============avishek_10bitcounter : New Iteration===========
Instance : 0

Inside foo before eval.....
clk=0
rst=0
count=49

Inside foo after eval.....
clk=1
rst=0
count=50
=============avishek_10bitcounter : New Iteration===========
Instance : 0

Inside foo before eval.....
clk=1
rst=0
count=50

Inside foo after eval.....
clk=1
rst=0
count=50
=============avishek_10bitcounter : New Iteration===========
Instance : 0

Inside foo before eval.....
clk=1
rst=0
count=50

Inside foo after eval.....
clk=1
rst=0
count=50
=============avishek_10bitcounter : New Iteration===========
Instance : 0

Inside foo before eval.....
clk=1
rst=0
count=50

Inside foo after eval.....
clk=0
rst=0
count=50
=============avishek_10bitcounter : New Iteration===========
Instance : 0

Inside foo before eval.....
clk=0
rst=0
count=50

Inside foo after eval.....
clk=1
rst=0
count=51
=============avishek_10bitcounter : New Iteration===========
Instance : 0

Inside foo before eval.....
clk=1
rst=0
count=51

Inside foo after eval.....
clk=1
rst=0
count=51
=============avishek_10bitcounter : New Iteration===========
Instance : 0

Inside foo before eval.....
clk=1
rst=0
count=51

Inside foo after eval.....
clk=1
rst=0
count=51
=============avishek_10bitcounter : New Iteration===========
Instance : 0

Inside foo before eval.....
clk=1
rst=0
count=51

Inside foo after eval.....
clk=0
rst=0
count=51
=============avishek_10bitcounter : New Iteration===========
Instance : 0

Inside foo before eval.....
clk=0
rst=0
count=51

Inside foo after eval.....
clk=1
rst=0
count=52
=============avishek_10bitcounter : New Iteration===========
Instance : 0

Inside foo before eval.....
clk=1
rst=0
count=52

Inside foo after eval.....
clk=1
rst=0
count=52
=============avishek_10bitcounter : New Iteration===========
Instance : 0

Inside foo before eval.....
clk=1
rst=0
count=52

Inside foo after eval.....
clk=1
rst=0
count=52
=============avishek_10bitcounter : New Iteration===========
Instance : 0

Inside foo before eval.....
clk=1
rst=0
count=52

Inside foo after eval.....
clk=0
rst=0
count=52
=============avishek_10bitcounter : New Iteration===========
Instance : 0

Inside foo before eval.....
clk=0
rst=0
count=52

Inside foo after eval.....
clk=1
rst=0
count=53
=============avishek_10bitcounter : New Iteration===========
Instance : 0

Inside foo before eval.....
clk=1
rst=0
count=53

Inside foo after eval.....
clk=1
rst=0
count=53
=============avishek_10bitcounter : New Iteration===========
Instance : 0

Inside foo before eval.....
clk=1
rst=0
count=53

Inside foo after eval.....
clk=1
rst=0
count=53
=============avishek_10bitcounter : New Iteration===========
Instance : 0

Inside foo before eval.....
clk=1
rst=0
count=53

Inside foo after eval.....
clk=0
rst=0
count=53
=============avishek_10bitcounter : New Iteration===========
Instance : 0

Inside foo before eval.....
clk=0
rst=0
count=53

Inside foo after eval.....
clk=1
rst=0
count=54
=============avishek_10bitcounter : New Iteration===========
Instance : 0

Inside foo before eval.....
clk=1
rst=0
count=54

Inside foo after eval.....
clk=1
rst=0
count=54
=============avishek_10bitcounter : New Iteration===========
Instance : 0

Inside foo before eval.....
clk=1
rst=0
count=54

Inside foo after eval.....
clk=1
rst=0
count=54
=============avishek_10bitcounter : New Iteration===========
Instance : 0

Inside foo before eval.....
clk=1
rst=0
count=54

Inside foo after eval.....
clk=0
rst=0
count=54
=============avishek_10bitcounter : New Iteration===========
Instance : 0

Inside foo before eval.....
clk=0
rst=0
count=54

Inside foo after eval.....
clk=1
rst=0
count=55
=============avishek_10bitcounter : New Iteration===========
Instance : 0

Inside foo before eval.....
clk=1
rst=0
count=55

Inside foo after eval.....
clk=1
rst=0
count=55
=============avishek_10bitcounter : New Iteration===========
Instance : 0

Inside foo before eval.....
clk=1
rst=0
count=55

Inside foo after eval.....
clk=1
rst=0
count=55
=============avishek_10bitcounter : New Iteration===========
Instance : 0

Inside foo before eval.....
clk=1
rst=0
count=55

Inside foo after eval.....
clk=0
rst=0
count=55
=============avishek_10bitcounter : New Iteration===========
Instance : 0

Inside foo before eval.....
clk=0
rst=0
count=55

Inside foo after eval.....
clk=1
rst=0
count=56
=============avishek_10bitcounter : New Iteration===========
Instance : 0

Inside foo before eval.....
clk=1
rst=0
count=56

Inside foo after eval.....
clk=1
rst=0
count=56
=============avishek_10bitcounter : New Iteration===========
Instance : 0

Inside foo before eval.....
clk=1
rst=0
count=56

Inside foo after eval.....
clk=1
rst=0
count=56
=============avishek_10bitcounter : New Iteration===========
Instance : 0

Inside foo before eval.....
clk=1
rst=0
count=56

Inside foo after eval.....
clk=0
rst=0
count=56
=============avishek_10bitcounter : New Iteration===========
Instance : 0

Inside foo before eval.....
clk=0
rst=0
count=56

Inside foo after eval.....
clk=1
rst=0
count=57
=============avishek_10bitcounter : New Iteration===========
Instance : 0

Inside foo before eval.....
clk=1
rst=0
count=57

Inside foo after eval.....
clk=1
rst=0
count=57
=============avishek_10bitcounter : New Iteration===========
Instance : 0

Inside foo before eval.....
clk=1
rst=0
count=57

Inside foo after eval.....
clk=1
rst=0
count=57
=============avishek_10bitcounter : New Iteration===========
Instance : 0

Inside foo before eval.....
clk=1
rst=0
count=57

Inside foo after eval.....
clk=0
rst=0
count=57
=============avishek_10bitcounter : New Iteration===========
Instance : 0

Inside foo before eval.....
clk=0
rst=0
count=57

Inside foo after eval.....
clk=1
rst=0
count=58
=============avishek_10bitcounter : New Iteration===========
Instance : 0

Inside foo before eval.....
clk=1
rst=0
count=58

Inside foo after eval.....
clk=1
rst=0
count=58
=============avishek_10bitcounter : New Iteration===========
Instance : 0

Inside foo before eval.....
clk=1
rst=0
count=58

Inside foo after eval.....
clk=1
rst=0
count=58
=============avishek_10bitcounter : New Iteration===========
Instance : 0

Inside foo before eval.....
clk=1
rst=0
count=58

Inside foo after eval.....
clk=0
rst=0
count=58
=============avishek_10bitcounter : New Iteration===========
Instance : 0

Inside foo before eval.....
clk=0
rst=0
count=58

Inside foo after eval.....
clk=1
rst=0
count=59
=============avishek_10bitcounter : New Iteration===========
Instance : 0

Inside foo before eval.....
clk=1
rst=0
count=59

Inside foo after eval.....
clk=1
rst=0
count=59
=============avishek_10bitcounter : New Iteration===========
Instance : 0

Inside foo before eval.....
clk=1
rst=0
count=59

Inside foo after eval.....
clk=1
rst=0
count=59
=============avishek_10bitcounter : New Iteration===========
Instance : 0

Inside foo before eval.....
clk=1
rst=0
count=59

Inside foo after eval.....
clk=0
rst=0
count=59
=============avishek_10bitcounter : New Iteration===========
Instance : 0

Inside foo before eval.....
clk=0
rst=0
count=59

Inside foo after eval.....
clk=1
rst=0
count=60
=============avishek_10bitcounter : New Iteration===========
Instance : 0

Inside foo before eval.....
clk=1
rst=0
count=60

Inside foo after eval.....
clk=1
rst=0
count=60
=============avishek_10bitcounter : New Iteration===========
Instance : 0

Inside foo before eval.....
clk=1
rst=0
count=60

Inside foo after eval.....
clk=1
rst=0
count=60
=============avishek_10bitcounter : New Iteration===========
Instance : 0

Inside foo before eval.....
clk=1
rst=0
count=60

Inside foo after eval.....
clk=0
rst=0
count=60
=============avishek_10bitcounter : New Iteration===========
Instance : 0

Inside foo before eval.....
clk=0
rst=0
count=60

Inside foo after eval.....
clk=1
rst=0
count=61
=============avishek_10bitcounter : New Iteration===========
Instance : 0

Inside foo before eval.....
clk=1
rst=0
count=61

Inside foo after eval.....
clk=1
rst=0
count=61
=============avishek_10bitcounter : New Iteration===========
Instance : 0

Inside foo before eval.....
clk=1
rst=0
count=61

Inside foo after eval.....
clk=1
rst=0
count=61
=============avishek_10bitcounter : New Iteration===========
Instance : 0

Inside foo before eval.....
clk=1
rst=0
count=61

Inside foo after eval.....
clk=0
rst=0
count=61
=============avishek_10bitcounter : New Iteration===========
Instance : 0

Inside foo before eval.....
clk=0
rst=0
count=61

Inside foo after eval.....
clk=1
rst=0
count=62
=============avishek_10bitcounter : New Iteration===========
Instance : 0

Inside foo before eval.....
clk=1
rst=0
count=62

Inside foo after eval.....
clk=1
rst=0
count=62
=============avishek_10bitcounter : New Iteration===========
Instance : 0

Inside foo before eval.....
clk=1
rst=0
count=62

Inside foo after eval.....
clk=1
rst=0
count=62
=============avishek_10bitcounter : New Iteration===========
Instance : 0

Inside foo before eval.....
clk=1
rst=0
count=62

Inside foo after eval.....
clk=0
rst=0
count=62
=============avishek_10bitcounter : New Iteration===========
Instance : 0

Inside foo before eval.....
clk=0
rst=0
count=62

Inside foo after eval.....
clk=1
rst=0
count=63
=============avishek_10bitcounter : New Iteration===========
Instance : 0

Inside foo before eval.....
clk=1
rst=0
count=63

Inside foo after eval.....
clk=1
rst=0
count=63
=============avishek_10bitcounter : New Iteration===========
Instance : 0

Inside foo before eval.....
clk=1
rst=0
count=63

Inside foo after eval.....
clk=1
rst=0
count=63
=============avishek_10bitcounter : New Iteration===========
Instance : 0

Inside foo before eval.....
clk=1
rst=0
count=63

Inside foo after eval.....
clk=0
rst=0
count=63
=============avishek_10bitcounter : New Iteration===========
Instance : 0

Inside foo before eval.....
clk=0
rst=0
count=63

Inside foo after eval.....
clk=1
rst=0
count=64
=============avishek_10bitcounter : New Iteration===========
Instance : 0

Inside foo before eval.....
clk=1
rst=0
count=64

Inside foo after eval.....
clk=1
rst=0
count=64
=============avishek_10bitcounter : New Iteration===========
Instance : 0

Inside foo before eval.....
clk=1
rst=0
count=64

Inside foo after eval.....
clk=1
rst=0
count=64
=============avishek_10bitcounter : New Iteration===========
Instance : 0

Inside foo before eval.....
clk=1
rst=0
count=64

Inside foo after eval.....
clk=0
rst=0
count=64
=============avishek_10bitcounter : New Iteration===========
Instance : 0

Inside foo before eval.....
clk=0
rst=0
count=64

Inside foo after eval.....
clk=1
rst=0
count=65
=============avishek_10bitcounter : New Iteration===========
Instance : 0

Inside foo before eval.....
clk=1
rst=0
count=65

Inside foo after eval.....
clk=1
rst=0
count=65
=============avishek_10bitcounter : New Iteration===========
Instance : 0

Inside foo before eval.....
clk=1
rst=0
count=65

Inside foo after eval.....
clk=1
rst=0
count=65
=============avishek_10bitcounter : New Iteration===========
Instance : 0

Inside foo before eval.....
clk=1
rst=0
count=65

Inside foo after eval.....
clk=0
rst=0
count=65
=============avishek_10bitcounter : New Iteration===========
Instance : 0

Inside foo before eval.....
clk=0
rst=0
count=65

Inside foo after eval.....
clk=1
rst=0
count=66
=============avishek_10bitcounter : New Iteration===========
Instance : 0

Inside foo before eval.....
clk=1
rst=0
count=66

Inside foo after eval.....
clk=1
rst=0
count=66
=============avishek_10bitcounter : New Iteration===========
Instance : 0

Inside foo before eval.....
clk=1
rst=0
count=66

Inside foo after eval.....
clk=1
rst=0
count=66
=============avishek_10bitcounter : New Iteration===========
Instance : 0

Inside foo before eval.....
clk=1
rst=0
count=66

Inside foo after eval.....
clk=0
rst=0
count=66
=============avishek_10bitcounter : New Iteration===========
Instance : 0

Inside foo before eval.....
clk=0
rst=0
count=66

Inside foo after eval.....
clk=1
rst=0
count=67
=============avishek_10bitcounter : New Iteration===========
Instance : 0

Inside foo before eval.....
clk=1
rst=0
count=67

Inside foo after eval.....
clk=1
rst=0
count=67
=============avishek_10bitcounter : New Iteration===========
Instance : 0

Inside foo before eval.....
clk=1
rst=0
count=67

Inside foo after eval.....
clk=1
rst=0
count=67
=============avishek_10bitcounter : New Iteration===========
Instance : 0

Inside foo before eval.....
clk=1
rst=0
count=67

Inside foo after eval.....
clk=0
rst=0
count=67
=============avishek_10bitcounter : New Iteration===========
Instance : 0

Inside foo before eval.....
clk=0
rst=0
count=67

Inside foo after eval.....
clk=1
rst=0
count=68
=============avishek_10bitcounter : New Iteration===========
Instance : 0

Inside foo before eval.....
clk=1
rst=0
count=68

Inside foo after eval.....
clk=1
rst=0
count=68
=============avishek_10bitcounter : New Iteration===========
Instance : 0

Inside foo before eval.....
clk=1
rst=0
count=68

Inside foo after eval.....
clk=1
rst=0
count=68
=============avishek_10bitcounter : New Iteration===========
Instance : 0

Inside foo before eval.....
clk=1
rst=0
count=68

Inside foo after eval.....
clk=0
rst=0
count=68
=============avishek_10bitcounter : New Iteration===========
Instance : 0

Inside foo before eval.....
clk=0
rst=0
count=68

Inside foo after eval.....
clk=1
rst=0
count=69
=============avishek_10bitcounter : New Iteration===========
Instance : 0

Inside foo before eval.....
clk=1
rst=0
count=69

Inside foo after eval.....
clk=1
rst=0
count=69
=============avishek_10bitcounter : New Iteration===========
Instance : 0

Inside foo before eval.....
clk=1
rst=0
count=69

Inside foo after eval.....
clk=1
rst=0
count=69
=============avishek_10bitcounter : New Iteration===========
Instance : 0

Inside foo before eval.....
clk=1
rst=0
count=69

Inside foo after eval.....
clk=0
rst=0
count=69
=============avishek_10bitcounter : New Iteration===========
Instance : 0

Inside foo before eval.....
clk=0
rst=0
count=69

Inside foo after eval.....
clk=1
rst=0
count=70
=============avishek_10bitcounter : New Iteration===========
Instance : 0

Inside foo before eval.....
clk=1
rst=0
count=70

Inside foo after eval.....
clk=1
rst=0
count=70
=============avishek_10bitcounter : New Iteration===========
Instance : 0

Inside foo before eval.....
clk=1
rst=0
count=70

Inside foo after eval.....
clk=1
rst=0
count=70
=============avishek_10bitcounter : New Iteration===========
Instance : 0

Inside foo before eval.....
clk=1
rst=0
count=70

Inside foo after eval.....
clk=0
rst=0
count=70
=============avishek_10bitcounter : New Iteration===========
Instance : 0

Inside foo before eval.....
clk=0
rst=0
count=70

Inside foo after eval.....
clk=1
rst=0
count=71
=============avishek_10bitcounter : New Iteration===========
Instance : 0

Inside foo before eval.....
clk=1
rst=0
count=71

Inside foo after eval.....
clk=1
rst=0
count=71
=============avishek_10bitcounter : New Iteration===========
Instance : 0

Inside foo before eval.....
clk=1
rst=0
count=71

Inside foo after eval.....
clk=1
rst=0
count=71
=============avishek_10bitcounter : New Iteration===========
Instance : 0

Inside foo before eval.....
clk=1
rst=0
count=71

Inside foo after eval.....
clk=0
rst=0
count=71
=============avishek_10bitcounter : New Iteration===========
Instance : 0

Inside foo before eval.....
clk=0
rst=0
count=71

Inside foo after eval.....
clk=1
rst=0
count=72
=============avishek_10bitcounter : New Iteration===========
Instance : 0

Inside foo before eval.....
clk=1
rst=0
count=72

Inside foo after eval.....
clk=1
rst=0
count=72
=============avishek_10bitcounter : New Iteration===========
Instance : 0

Inside foo before eval.....
clk=1
rst=0
count=72

Inside foo after eval.....
clk=1
rst=0
count=72
=============avishek_10bitcounter : New Iteration===========
Instance : 0

Inside foo before eval.....
clk=1
rst=0
count=72

Inside foo after eval.....
clk=0
rst=0
count=72
=============avishek_10bitcounter : New Iteration===========
Instance : 0

Inside foo before eval.....
clk=0
rst=0
count=72

Inside foo after eval.....
clk=1
rst=0
count=73
=============avishek_10bitcounter : New Iteration===========
Instance : 0

Inside foo before eval.....
clk=1
rst=0
count=73

Inside foo after eval.....
clk=1
rst=0
count=73
=============avishek_10bitcounter : New Iteration===========
Instance : 0

Inside foo before eval.....
clk=1
rst=0
count=73

Inside foo after eval.....
clk=1
rst=0
count=73
=============avishek_10bitcounter : New Iteration===========
Instance : 0

Inside foo before eval.....
clk=1
rst=0
count=73

Inside foo after eval.....
clk=0
rst=0
count=73
=============avishek_10bitcounter : New Iteration===========
Instance : 0

Inside foo before eval.....
clk=0
rst=0
count=73

Inside foo after eval.....
clk=1
rst=0
count=74
=============avishek_10bitcounter : New Iteration===========
Instance : 0

Inside foo before eval.....
clk=1
rst=0
count=74

Inside foo after eval.....
clk=1
rst=0
count=74
=============avishek_10bitcounter : New Iteration===========
Instance : 0

Inside foo before eval.....
clk=1
rst=0
count=74

Inside foo after eval.....
clk=1
rst=0
count=74
=============avishek_10bitcounter : New Iteration===========
Instance : 0

Inside foo before eval.....
clk=1
rst=0
count=74

Inside foo after eval.....
clk=0
rst=0
count=74
=============avishek_10bitcounter : New Iteration===========
Instance : 0

Inside foo before eval.....
clk=0
rst=0
count=74

Inside foo after eval.....
clk=1
rst=0
count=75
=============avishek_10bitcounter : New Iteration===========
Instance : 0

Inside foo before eval.....
clk=1
rst=0
count=75

Inside foo after eval.....
clk=1
rst=0
count=75
=============avishek_10bitcounter : New Iteration===========
Instance : 0

Inside foo before eval.....
clk=1
rst=0
count=75

Inside foo after eval.....
clk=1
rst=0
count=75
=============avishek_10bitcounter : New Iteration===========
Instance : 0

Inside foo before eval.....
clk=1
rst=0
count=75

Inside foo after eval.....
clk=0
rst=0
count=75
=============avishek_10bitcounter : New Iteration===========
Instance : 0

Inside foo before eval.....
clk=0
rst=0
count=75

Inside foo after eval.....
clk=1
rst=0
count=76
=============avishek_10bitcounter : New Iteration===========
Instance : 0

Inside foo before eval.....
clk=1
rst=0
count=76

Inside foo after eval.....
clk=1
rst=0
count=76
=============avishek_10bitcounter : New Iteration===========
Instance : 0

Inside foo before eval.....
clk=1
rst=0
count=76

Inside foo after eval.....
clk=1
rst=0
count=76
=============avishek_10bitcounter : New Iteration===========
Instance : 0

Inside foo before eval.....
clk=1
rst=0
count=76

Inside foo after eval.....
clk=0
rst=0
count=76
=============avishek_10bitcounter : New Iteration===========
Instance : 0

Inside foo before eval.....
clk=0
rst=0
count=76

Inside foo after eval.....
clk=1
rst=0
count=77
=============avishek_10bitcounter : New Iteration===========
Instance : 0

Inside foo before eval.....
clk=1
rst=0
count=77

Inside foo after eval.....
clk=1
rst=0
count=77
=============avishek_10bitcounter : New Iteration===========
Instance : 0

Inside foo before eval.....
clk=1
rst=0
count=77

Inside foo after eval.....
clk=1
rst=0
count=77
=============avishek_10bitcounter : New Iteration===========
Instance : 0

Inside foo before eval.....
clk=1
rst=0
count=77

Inside foo after eval.....
clk=0
rst=0
count=77
=============avishek_10bitcounter : New Iteration===========
Instance : 0

Inside foo before eval.....
clk=0
rst=0
count=77

Inside foo after eval.....
clk=1
rst=0
count=78
=============avishek_10bitcounter : New Iteration===========
Instance : 0

Inside foo before eval.....
clk=1
rst=0
count=78

Inside foo after eval.....
clk=1
rst=0
count=78
=============avishek_10bitcounter : New Iteration===========
Instance : 0

Inside foo before eval.....
clk=1
rst=0
count=78

Inside foo after eval.....
clk=1
rst=0
count=78
=============avishek_10bitcounter : New Iteration===========
Instance : 0

Inside foo before eval.....
clk=1
rst=0
count=78

Inside foo after eval.....
clk=0
rst=0
count=78
=============avishek_10bitcounter : New Iteration===========
Instance : 0

Inside foo before eval.....
clk=0
rst=0
count=78

Inside foo after eval.....
clk=1
rst=0
count=79
=============avishek_10bitcounter : New Iteration===========
Instance : 0

Inside foo before eval.....
clk=1
rst=0
count=79

Inside foo after eval.....
clk=1
rst=0
count=79
=============avishek_10bitcounter : New Iteration===========
Instance : 0

Inside foo before eval.....
clk=1
rst=0
count=79

Inside foo after eval.....
clk=1
rst=0
count=79
=============avishek_10bitcounter : New Iteration===========
Instance : 0

Inside foo before eval.....
clk=1
rst=0
count=79

Inside foo after eval.....
clk=0
rst=0
count=79
=============avishek_10bitcounter : New Iteration===========
Instance : 0

Inside foo before eval.....
clk=0
rst=0
count=79

Inside foo after eval.....
clk=1
rst=0
count=80
=============avishek_10bitcounter : New Iteration===========
Instance : 0

Inside foo before eval.....
clk=1
rst=0
count=80

Inside foo after eval.....
clk=1
rst=0
count=80
=============avishek_10bitcounter : New Iteration===========
Instance : 0

Inside foo before eval.....
clk=1
rst=0
count=80

Inside foo after eval.....
clk=1
rst=0
count=80
=============avishek_10bitcounter : New Iteration===========
Instance : 0

Inside foo before eval.....
clk=1
rst=0
count=80

Inside foo after eval.....
clk=0
rst=0
count=80
=============avishek_10bitcounter : New Iteration===========
Instance : 0

Inside foo before eval.....
clk=0
rst=0
count=80

Inside foo after eval.....
clk=1
rst=0
count=81
=============avishek_10bitcounter : New Iteration===========
Instance : 0

Inside foo before eval.....
clk=1
rst=0
count=81

Inside foo after eval.....
clk=1
rst=0
count=81
=============avishek_10bitcounter : New Iteration===========
Instance : 0

Inside foo before eval.....
clk=1
rst=0
count=81

Inside foo after eval.....
clk=1
rst=0
count=81
=============avishek_10bitcounter : New Iteration===========
Instance : 0

Inside foo before eval.....
clk=1
rst=0
count=81

Inside foo after eval.....
clk=0
rst=0
count=81
=============avishek_10bitcounter : New Iteration===========
Instance : 0

Inside foo before eval.....
clk=0
rst=0
count=81

Inside foo after eval.....
clk=1
rst=0
count=82
=============avishek_10bitcounter : New Iteration===========
Instance : 0

Inside foo before eval.....
clk=1
rst=0
count=82

Inside foo after eval.....
clk=1
rst=0
count=82
=============avishek_10bitcounter : New Iteration===========
Instance : 0

Inside foo before eval.....
clk=1
rst=0
count=82

Inside foo after eval.....
clk=1
rst=0
count=82
=============avishek_10bitcounter : New Iteration===========
Instance : 0

Inside foo before eval.....
clk=1
rst=0
count=82

Inside foo after eval.....
clk=0
rst=0
count=82
=============avishek_10bitcounter : New Iteration===========
Instance : 0

Inside foo before eval.....
clk=0
rst=0
count=82

Inside foo after eval.....
clk=1
rst=0
count=83
=============avishek_10bitcounter : New Iteration===========
Instance : 0

Inside foo before eval.....
clk=1
rst=0
count=83

Inside foo after eval.....
clk=1
rst=0
count=83
=============avishek_10bitcounter : New Iteration===========
Instance : 0

Inside foo before eval.....
clk=1
rst=0
count=83

Inside foo after eval.....
clk=1
rst=0
count=83
=============avishek_10bitcounter : New Iteration===========
Instance : 0

Inside foo before eval.....
clk=1
rst=0
count=83

Inside foo after eval.....
clk=0
rst=0
count=83
=============avishek_10bitcounter : New Iteration===========
Instance : 0

Inside foo before eval.....
clk=0
rst=0
count=83

Inside foo after eval.....
clk=1
rst=0
count=84
=============avishek_10bitcounter : New Iteration===========
Instance : 0

Inside foo before eval.....
clk=1
rst=0
count=84

Inside foo after eval.....
clk=1
rst=0
count=84
=============avishek_10bitcounter : New Iteration===========
Instance : 0

Inside foo before eval.....
clk=1
rst=0
count=84

Inside foo after eval.....
clk=1
rst=0
count=84
=============avishek_10bitcounter : New Iteration===========
Instance : 0

Inside foo before eval.....
clk=1
rst=0
count=84

Inside foo after eval.....
clk=0
rst=0
count=84
=============avishek_10bitcounter : New Iteration===========
Instance : 0

Inside foo before eval.....
clk=0
rst=0
count=84

Inside foo after eval.....
clk=1
rst=0
count=85
=============avishek_10bitcounter : New Iteration===========
Instance : 0

Inside foo before eval.....
clk=1
rst=0
count=85

Inside foo after eval.....
clk=1
rst=0
count=85
=============avishek_10bitcounter : New Iteration===========
Instance : 0

Inside foo before eval.....
clk=1
rst=0
count=85

Inside foo after eval.....
clk=1
rst=0
count=85
=============avishek_10bitcounter : New Iteration===========
Instance : 0

Inside foo before eval.....
clk=1
rst=0
count=85

Inside foo after eval.....
clk=0
rst=0
count=85
=============avishek_10bitcounter : New Iteration===========
Instance : 0

Inside foo before eval.....
clk=0
rst=0
count=85

Inside foo after eval.....
clk=1
rst=0
count=86
=============avishek_10bitcounter : New Iteration===========
Instance : 0

Inside foo before eval.....
clk=1
rst=0
count=86

Inside foo after eval.....
clk=1
rst=0
count=86
=============avishek_10bitcounter : New Iteration===========
Instance : 0

Inside foo before eval.....
clk=1
rst=0
count=86

Inside foo after eval.....
clk=1
rst=0
count=86
=============avishek_10bitcounter : New Iteration===========
Instance : 0

Inside foo before eval.....
clk=1
rst=0
count=86

Inside foo after eval.....
clk=0
rst=0
count=86
=============avishek_10bitcounter : New Iteration===========
Instance : 0

Inside foo before eval.....
clk=0
rst=0
count=86

Inside foo after eval.....
clk=1
rst=0
count=87
=============avishek_10bitcounter : New Iteration===========
Instance : 0

Inside foo before eval.....
clk=1
rst=0
count=87

Inside foo after eval.....
clk=1
rst=0
count=87
=============avishek_10bitcounter : New Iteration===========
Instance : 0

Inside foo before eval.....
clk=1
rst=0
count=87

Inside foo after eval.....
clk=1
rst=0
count=87
=============avishek_10bitcounter : New Iteration===========
Instance : 0

Inside foo before eval.....
clk=1
rst=0
count=87

Inside foo after eval.....
clk=0
rst=0
count=87
=============avishek_10bitcounter : New Iteration===========
Instance : 0

Inside foo before eval.....
clk=0
rst=0
count=87

Inside foo after eval.....
clk=1
rst=0
count=88
=============avishek_10bitcounter : New Iteration===========
Instance : 0

Inside foo before eval.....
clk=1
rst=0
count=88

Inside foo after eval.....
clk=1
rst=0
count=88
=============avishek_10bitcounter : New Iteration===========
Instance : 0

Inside foo before eval.....
clk=1
rst=0
count=88

Inside foo after eval.....
clk=1
rst=0
count=88
=============avishek_10bitcounter : New Iteration===========
Instance : 0

Inside foo before eval.....
clk=1
rst=0
count=88

Inside foo after eval.....
clk=0
rst=0
count=88
=============avishek_10bitcounter : New Iteration===========
Instance : 0

Inside foo before eval.....
clk=0
rst=0
count=88

Inside foo after eval.....
clk=1
rst=0
count=89
=============avishek_10bitcounter : New Iteration===========
Instance : 0

Inside foo before eval.....
clk=1
rst=0
count=89

Inside foo after eval.....
clk=1
rst=0
count=89
=============avishek_10bitcounter : New Iteration===========
Instance : 0

Inside foo before eval.....
clk=1
rst=0
count=89

Inside foo after eval.....
clk=1
rst=0
count=89
=============avishek_10bitcounter : New Iteration===========
Instance : 0

Inside foo before eval.....
clk=1
rst=0
count=89

Inside foo after eval.....
clk=0
rst=0
count=89
=============avishek_10bitcounter : New Iteration===========
Instance : 0

Inside foo before eval.....
clk=0
rst=0
count=89

Inside foo after eval.....
clk=1
rst=0
count=90
=============avishek_10bitcounter : New Iteration===========
Instance : 0

Inside foo before eval.....
clk=1
rst=0
count=90

Inside foo after eval.....
clk=1
rst=0
count=90
=============avishek_10bitcounter : New Iteration===========
Instance : 0

Inside foo before eval.....
clk=1
rst=0
count=90

Inside foo after eval.....
clk=1
rst=0
count=90
=============avishek_10bitcounter : New Iteration===========
Instance : 0

Inside foo before eval.....
clk=1
rst=0
count=90

Inside foo after eval.....
clk=0
rst=0
count=90
=============avishek_10bitcounter : New Iteration===========
Instance : 0

Inside foo before eval.....
clk=0
rst=0
count=90

Inside foo after eval.....
clk=1
rst=0
count=91
=============avishek_10bitcounter : New Iteration===========
Instance : 0

Inside foo before eval.....
clk=1
rst=0
count=91

Inside foo after eval.....
clk=1
rst=0
count=91
=============avishek_10bitcounter : New Iteration===========
Instance : 0

Inside foo before eval.....
clk=1
rst=0
count=91

Inside foo after eval.....
clk=1
rst=0
count=91
=============avishek_10bitcounter : New Iteration===========
Instance : 0

Inside foo before eval.....
clk=1
rst=0
count=91

Inside foo after eval.....
clk=0
rst=0
count=91
=============avishek_10bitcounter : New Iteration===========
Instance : 0

Inside foo before eval.....
clk=0
rst=0
count=91

Inside foo after eval.....
clk=1
rst=0
count=92
=============avishek_10bitcounter : New Iteration===========
Instance : 0

Inside foo before eval.....
clk=1
rst=0
count=92

Inside foo after eval.....
clk=1
rst=0
count=92
=============avishek_10bitcounter : New Iteration===========
Instance : 0

Inside foo before eval.....
clk=1
rst=0
count=92

Inside foo after eval.....
clk=1
rst=0
count=92
=============avishek_10bitcounter : New Iteration===========
Instance : 0

Inside foo before eval.....
clk=1
rst=0
count=92

Inside foo after eval.....
clk=0
rst=0
count=92
=============avishek_10bitcounter : New Iteration===========
Instance : 0

Inside foo before eval.....
clk=0
rst=0
count=92

Inside foo after eval.....
clk=1
rst=0
count=93
=============avishek_10bitcounter : New Iteration===========
Instance : 0

Inside foo before eval.....
clk=1
rst=0
count=93

Inside foo after eval.....
clk=1
rst=0
count=93
=============avishek_10bitcounter : New Iteration===========
Instance : 0

Inside foo before eval.....
clk=1
rst=0
count=93

Inside foo after eval.....
clk=1
rst=0
count=93
=============avishek_10bitcounter : New Iteration===========
Instance : 0

Inside foo before eval.....
clk=1
rst=0
count=93

Inside foo after eval.....
clk=0
rst=0
count=93
=============avishek_10bitcounter : New Iteration===========
Instance : 0

Inside foo before eval.....
clk=0
rst=0
count=93

Inside foo after eval.....
clk=1
rst=0
count=94
=============avishek_10bitcounter : New Iteration===========
Instance : 0

Inside foo before eval.....
clk=1
rst=0
count=94

Inside foo after eval.....
clk=1
rst=0
count=94
=============avishek_10bitcounter : New Iteration===========
Instance : 0

Inside foo before eval.....
clk=1
rst=0
count=94

Inside foo after eval.....
clk=1
rst=0
count=94
=============avishek_10bitcounter : New Iteration===========
Instance : 0

Inside foo before eval.....
clk=1
rst=0
count=94

Inside foo after eval.....
clk=0
rst=0
count=94
=============avishek_10bitcounter : New Iteration===========
Instance : 0

Inside foo before eval.....
clk=0
rst=0
count=94

Inside foo after eval.....
clk=1
rst=0
count=95
=============avishek_10bitcounter : New Iteration===========
Instance : 0

Inside foo before eval.....
clk=1
rst=0
count=95

Inside foo after eval.....
clk=1
rst=0
count=95
=============avishek_10bitcounter : New Iteration===========
Instance : 0

Inside foo before eval.....
clk=1
rst=0
count=95

Inside foo after eval.....
clk=1
rst=0
count=95
=============avishek_10bitcounter : New Iteration===========
Instance : 0

Inside foo before eval.....
clk=1
rst=0
count=95

Inside foo after eval.....
clk=0
rst=0
count=95
=============avishek_10bitcounter : New Iteration===========
Instance : 0

Inside foo before eval.....
clk=0
rst=0
count=95

Inside foo after eval.....
clk=1
rst=0
count=96
=============avishek_10bitcounter : New Iteration===========
Instance : 0

Inside foo before eval.....
clk=1
rst=0
count=96

Inside foo after eval.....
clk=1
rst=0
count=96
=============avishek_10bitcounter : New Iteration===========
Instance : 0

Inside foo before eval.....
clk=1
rst=0
count=96

Inside foo after eval.....
clk=1
rst=0
count=96
=============avishek_10bitcounter : New Iteration===========
Instance : 0

Inside foo before eval.....
clk=1
rst=0
count=96

Inside foo after eval.....
clk=0
rst=0
count=96
=============avishek_10bitcounter : New Iteration===========
Instance : 0

Inside foo before eval.....
clk=0
rst=0
count=96

Inside foo after eval.....
clk=1
rst=0
count=97
=============avishek_10bitcounter : New Iteration===========
Instance : 0

Inside foo before eval.....
clk=1
rst=0
count=97

Inside foo after eval.....
clk=1
rst=0
count=97
=============avishek_10bitcounter : New Iteration===========
Instance : 0

Inside foo before eval.....
clk=1
rst=0
count=97

Inside foo after eval.....
clk=1
rst=0
count=97
=============avishek_10bitcounter : New Iteration===========
Instance : 0

Inside foo before eval.....
clk=1
rst=0
count=97

Inside foo after eval.....
clk=0
rst=0
count=97
=============avishek_10bitcounter : New Iteration===========
Instance : 0

Inside foo before eval.....
clk=0
rst=0
count=97

Inside foo after eval.....
clk=1
rst=0
count=98
=============avishek_10bitcounter : New Iteration===========
Instance : 0

Inside foo before eval.....
clk=1
rst=0
count=98

Inside foo after eval.....
clk=1
rst=0
count=98
=============avishek_10bitcounter : New Iteration===========
Instance : 0

Inside foo before eval.....
clk=1
rst=0
count=98

Inside foo after eval.....
clk=1
rst=0
count=98
=============avishek_10bitcounter : New Iteration===========
Instance : 0

Inside foo before eval.....
clk=1
rst=0
count=98

Inside foo after eval.....
clk=0
rst=0
count=98
=============avishek_10bitcounter : New Iteration===========
Instance : 0

Inside foo before eval.....
clk=0
rst=0
count=98

Inside foo after eval.....
clk=1
rst=0
count=99
=============avishek_10bitcounter : New Iteration===========
Instance : 0

Inside foo before eval.....
clk=1
rst=0
count=99

Inside foo after eval.....
clk=1
rst=0
count=99
=============avishek_10bitcounter : New Iteration===========
Instance : 0

Inside foo before eval.....
clk=1
rst=0
count=99

Inside foo after eval.....
clk=1
rst=0
count=99
=============avishek_10bitcounter : New Iteration===========
Instance : 0

Inside foo before eval.....
clk=1
rst=0
count=99

Inside foo after eval.....
clk=0
rst=0
count=99
=============avishek_10bitcounter : New Iteration===========
Instance : 0

Inside foo before eval.....
clk=0
rst=0
count=99

Inside foo after eval.....
clk=1
rst=0
count=100
=============avishek_10bitcounter : New Iteration===========
Instance : 0

Inside foo before eval.....
clk=1
rst=0
count=100

Inside foo after eval.....
clk=1
rst=0
count=100
=============avishek_10bitcounter : New Iteration===========
Instance : 0

Inside foo before eval.....
clk=1
rst=0
count=100

Inside foo after eval.....
clk=1
rst=0
count=100
=============avishek_10bitcounter : New Iteration===========
Instance : 0

Inside foo before eval.....
clk=1
rst=0
count=100

Inside foo after eval.....
clk=0
rst=0
count=100
=============avishek_10bitcounter : New Iteration===========
Instance : 0

Inside foo before eval.....
clk=0
rst=0
count=100

Inside foo after eval.....
clk=1
rst=0
count=101
=============avishek_10bitcounter : New Iteration===========
Instance : 0

Inside foo before eval.....
clk=1
rst=0
count=101

Inside foo after eval.....
clk=1
rst=0
count=101
=============avishek_10bitcounter : New Iteration===========
Instance : 0

Inside foo before eval.....
clk=1
rst=0
count=101

Inside foo after eval.....
clk=1
rst=0
count=101
=============avishek_10bitcounter : New Iteration===========
Instance : 0

Inside foo before eval.....
clk=1
rst=0
count=101

Inside foo after eval.....
clk=0
rst=0
count=101
=============avishek_10bitcounter : New Iteration===========
Instance : 0

Inside foo before eval.....
clk=0
rst=0
count=101

Inside foo after eval.....
clk=1
rst=0
count=102
=============avishek_10bitcounter : New Iteration===========
Instance : 0

Inside foo before eval.....
clk=1
rst=0
count=102

Inside foo after eval.....
clk=1
rst=0
count=102
=============avishek_10bitcounter : New Iteration===========
Instance : 0

Inside foo before eval.....
clk=1
rst=0
count=102

Inside foo after eval.....
clk=1
rst=0
count=102
=============avishek_10bitcounter : New Iteration===========
Instance : 0

Inside foo before eval.....
clk=1
rst=0
count=102

Inside foo after eval.....
clk=0
rst=0
count=102
=============avishek_10bitcounter : New Iteration===========
Instance : 0

Inside foo before eval.....
clk=0
rst=0
count=102

Inside foo after eval.....
clk=1
rst=0
count=103
=============avishek_10bitcounter : New Iteration===========
Instance : 0

Inside foo before eval.....
clk=1
rst=0
count=103

Inside foo after eval.....
clk=1
rst=0
count=103
=============avishek_10bitcounter : New Iteration===========
Instance : 0

Inside foo before eval.....
clk=1
rst=0
count=103

Inside foo after eval.....
clk=1
rst=0
count=103
=============avishek_10bitcounter : New Iteration===========
Instance : 0

Inside foo before eval.....
clk=1
rst=0
count=103

Inside foo after eval.....
clk=0
rst=0
count=103
=============avishek_10bitcounter : New Iteration===========
Instance : 0

Inside foo before eval.....
clk=0
rst=0
count=103

Inside foo after eval.....
clk=1
rst=0
count=104
=============avishek_10bitcounter : New Iteration===========
Instance : 0

Inside foo before eval.....
clk=1
rst=0
count=104

Inside foo after eval.....
clk=1
rst=0
count=104
=============avishek_10bitcounter : New Iteration===========
Instance : 0

Inside foo before eval.....
clk=1
rst=0
count=104

Inside foo after eval.....
clk=1
rst=0
count=104
=============avishek_10bitcounter : New Iteration===========
Instance : 0

Inside foo before eval.....
clk=1
rst=0
count=104

Inside foo after eval.....
clk=0
rst=0
count=104
=============avishek_10bitcounter : New Iteration===========
Instance : 0

Inside foo before eval.....
clk=0
rst=0
count=104

Inside foo after eval.....
clk=1
rst=0
count=105
=============avishek_10bitcounter : New Iteration===========
Instance : 0

Inside foo before eval.....
clk=1
rst=0
count=105

Inside foo after eval.....
clk=1
rst=0
count=105
=============avishek_10bitcounter : New Iteration===========
Instance : 0

Inside foo before eval.....
clk=1
rst=0
count=105

Inside foo after eval.....
clk=1
rst=0
count=105
=============avishek_10bitcounter : New Iteration===========
Instance : 0

Inside foo before eval.....
clk=1
rst=0
count=105

Inside foo after eval.....
clk=0
rst=0
count=105
=============avishek_10bitcounter : New Iteration===========
Instance : 0

Inside foo before eval.....
clk=0
rst=0
count=105

Inside foo after eval.....
clk=1
rst=0
count=106
=============avishek_10bitcounter : New Iteration===========
Instance : 0

Inside foo before eval.....
clk=1
rst=0
count=106

Inside foo after eval.....
clk=1
rst=0
count=106
=============avishek_10bitcounter : New Iteration===========
Instance : 0

Inside foo before eval.....
clk=1
rst=0
count=106

Inside foo after eval.....
clk=1
rst=0
count=106
=============avishek_10bitcounter : New Iteration===========
Instance : 0

Inside foo before eval.....
clk=1
rst=0
count=106

Inside foo after eval.....
clk=0
rst=0
count=106
=============avishek_10bitcounter : New Iteration===========
Instance : 0

Inside foo before eval.....
clk=0
rst=0
count=106

Inside foo after eval.....
clk=1
rst=0
count=107
=============avishek_10bitcounter : New Iteration===========
Instance : 0

Inside foo before eval.....
clk=1
rst=0
count=107

Inside foo after eval.....
clk=1
rst=0
count=107
=============avishek_10bitcounter : New Iteration===========
Instance : 0

Inside foo before eval.....
clk=1
rst=0
count=107

Inside foo after eval.....
clk=1
rst=0
count=107
=============avishek_10bitcounter : New Iteration===========
Instance : 0

Inside foo before eval.....
clk=1
rst=0
count=107

Inside foo after eval.....
clk=0
rst=0
count=107
=============avishek_10bitcounter : New Iteration===========
Instance : 0

Inside foo before eval.....
clk=0
rst=0
count=107

Inside foo after eval.....
clk=1
rst=0
count=108
=============avishek_10bitcounter : New Iteration===========
Instance : 0

Inside foo before eval.....
clk=1
rst=0
count=108

Inside foo after eval.....
clk=1
rst=0
count=108
=============avishek_10bitcounter : New Iteration===========
Instance : 0

Inside foo before eval.....
clk=1
rst=0
count=108

Inside foo after eval.....
clk=1
rst=0
count=108
=============avishek_10bitcounter : New Iteration===========
Instance : 0

Inside foo before eval.....
clk=1
rst=0
count=108

Inside foo after eval.....
clk=0
rst=0
count=108
=============avishek_10bitcounter : New Iteration===========
Instance : 0

Inside foo before eval.....
clk=0
rst=0
count=108

Inside foo after eval.....
clk=1
rst=0
count=109
=============avishek_10bitcounter : New Iteration===========
Instance : 0

Inside foo before eval.....
clk=1
rst=0
count=109

Inside foo after eval.....
clk=1
rst=0
count=109
=============avishek_10bitcounter : New Iteration===========
Instance : 0

Inside foo before eval.....
clk=1
rst=0
count=109

Inside foo after eval.....
clk=1
rst=0
count=109
=============avishek_10bitcounter : New Iteration===========
Instance : 0

Inside foo before eval.....
clk=1
rst=0
count=109

Inside foo after eval.....
clk=0
rst=0
count=109
=============avishek_10bitcounter : New Iteration===========
Instance : 0

Inside foo before eval.....
clk=0
rst=0
count=109

Inside foo after eval.....
clk=1
rst=0
count=110
=============avishek_10bitcounter : New Iteration===========
Instance : 0

Inside foo before eval.....
clk=1
rst=0
count=110

Inside foo after eval.....
clk=1
rst=0
count=110
=============avishek_10bitcounter : New Iteration===========
Instance : 0

Inside foo before eval.....
clk=1
rst=0
count=110

Inside foo after eval.....
clk=1
rst=0
count=110
=============avishek_10bitcounter : New Iteration===========
Instance : 0

Inside foo before eval.....
clk=1
rst=0
count=110

Inside foo after eval.....
clk=0
rst=0
count=110
=============avishek_10bitcounter : New Iteration===========
Instance : 0

Inside foo before eval.....
clk=0
rst=0
count=110

Inside foo after eval.....
clk=1
rst=0
count=111
=============avishek_10bitcounter : New Iteration===========
Instance : 0

Inside foo before eval.....
clk=1
rst=0
count=111

Inside foo after eval.....
clk=1
rst=0
count=111
=============avishek_10bitcounter : New Iteration===========
Instance : 0

Inside foo before eval.....
clk=1
rst=0
count=111

Inside foo after eval.....
clk=1
rst=0
count=111
=============avishek_10bitcounter : New Iteration===========
Instance : 0

Inside foo before eval.....
clk=1
rst=0
count=111

Inside foo after eval.....
clk=0
rst=0
count=111
=============avishek_10bitcounter : New Iteration===========
Instance : 0

Inside foo before eval.....
clk=0
rst=0
count=111

Inside foo after eval.....
clk=1
rst=0
count=112
=============avishek_10bitcounter : New Iteration===========
Instance : 0

Inside foo before eval.....
clk=1
rst=0
count=112

Inside foo after eval.....
clk=1
rst=0
count=112
=============avishek_10bitcounter : New Iteration===========
Instance : 0

Inside foo before eval.....
clk=1
rst=0
count=112

Inside foo after eval.....
clk=1
rst=0
count=112
=============avishek_10bitcounter : New Iteration===========
Instance : 0

Inside foo before eval.....
clk=1
rst=0
count=112

Inside foo after eval.....
clk=0
rst=0
count=112
=============avishek_10bitcounter : New Iteration===========
Instance : 0

Inside foo before eval.....
clk=0
rst=0
count=112

Inside foo after eval.....
clk=1
rst=0
count=113
=============avishek_10bitcounter : New Iteration===========
Instance : 0

Inside foo before eval.....
clk=1
rst=0
count=113

[...]
=============avishek_10bitcounter : New Iteration===========
Instance : 1

Inside foo before eval.....
clk=0
rst=0
count=172

Inside foo after eval.....
clk=1
rst=0
count=173
=============avishek_10bitcounter : New Iteration===========
Instance : 1

Inside foo before eval.....
clk=1
rst=0
count=173

Inside foo after eval.....
clk=1
rst=0
count=173
=============avishek_10bitcounter : New Iteration===========
Instance : 1

Inside foo before eval.....
clk=1
rst=0
count=173

Inside foo after eval.....
clk=1
rst=0
count=173
=============avishek_10bitcounter : New Iteration===========
Instance : 1

Inside foo before eval.....
clk=1
rst=0
count=173

Inside foo after eval.....
clk=0
rst=0
count=173
=============avishek_10bitcounter : New Iteration===========
Instance : 1

Inside foo before eval.....
clk=0
rst=0
count=173

Inside foo after eval.....
clk=1
rst=0
count=174
=============avishek_10bitcounter : New Iteration===========
Instance : 1

Inside foo before eval.....
clk=1
rst=0
count=174

Inside foo after eval.....
clk=1
rst=0
count=174
=============avishek_10bitcounter : New Iteration===========
Instance : 1

Inside foo before eval.....
clk=1
rst=0
count=174

Inside foo after eval.....
clk=1
rst=0
count=174
=============avishek_10bitcounter : New Iteration===========
Instance : 1

Inside foo before eval.....
clk=1
rst=0
count=174

Inside foo after eval.....
clk=0
rst=0
count=174
=============avishek_10bitcounter : New Iteration===========
Instance : 1

Inside foo before eval.....
clk=0
rst=0
count=174

Inside foo after eval.....
clk=1
rst=0
count=175
=============avishek_10bitcounter : New Iteration===========
Instance : 1

Inside foo before eval.....
clk=1
rst=0
count=175

Inside foo after eval.....
clk=1
rst=0
count=175
=============avishek_10bitcounter : New Iteration===========
Instance : 1

Inside foo before eval.....
clk=1
rst=0
count=175

Inside foo after eval.....
clk=1
rst=0
count=175
=============avishek_10bitcounter : New Iteration===========
Instance : 1

Inside foo before eval.....
clk=1
rst=0
count=175

Inside foo after eval.....
clk=0
rst=0
count=175
=============avishek_10bitcounter : New Iteration===========
Instance : 1

Inside foo before eval.....
clk=0
rst=0
count=175

Inside foo after eval.....
clk=1
rst=0
count=176
=============avishek_10bitcounter : New Iteration===========
Instance : 1

Inside foo before eval.....
clk=1
rst=0
count=176

Inside foo after eval.....
clk=1
rst=0
count=176
=============avishek_10bitcounter : New Iteration===========
Instance : 1

Inside foo before eval.....
clk=1
rst=0
count=176

Inside foo after eval.....
clk=1
rst=0
count=176
=============avishek_10bitcounter : New Iteration===========
Instance : 1

Inside foo before eval.....
clk=1
rst=0
count=176

Inside foo after eval.....
clk=0
rst=0
count=176
=============avishek_10bitcounter : New Iteration===========
Instance : 1

Inside foo before eval.....
clk=0
rst=0
count=176

Inside foo after eval.....
clk=1
rst=0
count=177
=============avishek_10bitcounter : New Iteration===========
Instance : 1

Inside foo before eval.....
clk=1
rst=0
count=177

Inside foo after eval.....
clk=1
rst=0
count=177
=============avishek_10bitcounter : New Iteration===========
Instance : 1

Inside foo before eval.....
clk=1
rst=0
count=177

Inside foo after eval.....
clk=1
rst=0
count=177
=============avishek_10bitcounter : New Iteration===========
Instance : 1

Inside foo before eval.....
clk=1
rst=0
count=177

Inside foo after eval.....
clk=0
rst=0
count=177
=============avishek_10bitcounter : New Iteration===========
Instance : 1

Inside foo before eval.....
clk=0
rst=0
count=177

Inside foo after eval.....
clk=1
rst=0
count=178
=============avishek_10bitcounter : New Iteration===========
Instance : 1

Inside foo before eval.....
clk=1
rst=0
count=178

Inside foo after eval.....
clk=1
rst=0
count=178
=============avishek_10bitcounter : New Iteration===========
Instance : 1

Inside foo before eval.....
clk=1
rst=0
count=178

Inside foo after eval.....
clk=1
rst=0
count=178
=============avishek_10bitcounter : New Iteration===========
Instance : 1

Inside foo before eval.....
clk=1
rst=0
count=178

Inside foo after eval.....
clk=0
rst=0
count=178
=============avishek_10bitcounter : New Iteration===========
Instance : 1

Inside foo before eval.....
clk=0
rst=0
count=178

Inside foo after eval.....
clk=1
rst=0
count=179
=============avishek_10bitcounter : New Iteration===========
Instance : 1

Inside foo before eval.....
clk=1
rst=0
count=179

Inside foo after eval.....
clk=1
rst=0
count=179
=============avishek_10bitcounter : New Iteration===========
Instance : 1

Inside foo before eval.....
clk=1
rst=0
count=179

Inside foo after eval.....
clk=1
rst=0
count=179
=============avishek_10bitcounter : New Iteration===========
Instance : 1

Inside foo before eval.....
clk=1
rst=0
count=179

Inside foo after eval.....
clk=0
rst=0
count=179
=============avishek_10bitcounter : New Iteration===========
Instance : 1

Inside foo before eval.....
clk=0
rst=0
count=179

Inside foo after eval.....
clk=1
rst=0
count=180
=============avishek_10bitcounter : New Iteration===========
Instance : 1

Inside foo before eval.....
clk=1
rst=0
count=180

Inside foo after eval.....
clk=1
rst=0
count=180
=============avishek_10bitcounter : New Iteration===========
Instance : 1

Inside foo before eval.....
clk=1
rst=0
count=180

Inside foo after eval.....
clk=1
rst=0
count=180
=============avishek_10bitcounter : New Iteration===========
Instance : 1

Inside foo before eval.....
clk=1
rst=0
count=180

Inside foo after eval.....
clk=0
rst=0
count=180
=============avishek_10bitcounter : New Iteration===========
Instance : 1

Inside foo before eval.....
clk=0
rst=0
count=180

Inside foo after eval.....
clk=1
rst=0
count=181
=============avishek_10bitcounter : New Iteration===========
Instance : 1

Inside foo before eval.....
clk=1
rst=0
count=181

Inside foo after eval.....
clk=1
rst=0
count=181
=============avishek_10bitcounter : New Iteration===========
Instance : 1

Inside foo before eval.....
clk=1
rst=0
count=181

Inside foo after eval.....
clk=1
rst=0
count=181
=============avishek_10bitcounter : New Iteration===========
Instance : 1

Inside foo before eval.....
clk=1
rst=0
count=181

Inside foo after eval.....
clk=0
rst=0
count=181
=============avishek_10bitcounter : New Iteration===========
Instance : 1

Inside foo before eval.....
clk=0
rst=0
count=181

Inside foo after eval.....
clk=1
rst=0
count=182
=============avishek_10bitcounter : New Iteration===========
Instance : 1

Inside foo before eval.....
clk=1
rst=0
count=182

Inside foo after eval.....
clk=1
rst=0
count=182
=============avishek_10bitcounter : New Iteration===========
Instance : 1

Inside foo before eval.....
clk=1
rst=0
count=182

Inside foo after eval.....
clk=1
rst=0
count=182
=============avishek_10bitcounter : New Iteration===========
Instance : 1

Inside foo before eval.....
clk=1
rst=0
count=182

Inside foo after eval.....
clk=0
rst=0
count=182
=============avishek_10bitcounter : New Iteration===========
Instance : 1

Inside foo before eval.....
clk=0
rst=0
count=182

Inside foo after eval.....
clk=1
rst=0
count=183
=============avishek_10bitcounter : New Iteration===========
Instance : 1

Inside foo before eval.....
clk=1
rst=0
count=183

Inside foo after eval.....
clk=1
rst=0
count=183
=============avishek_10bitcounter : New Iteration===========
Instance : 1

Inside foo before eval.....
clk=1
rst=0
count=183

Inside foo after eval.....
clk=1
rst=0
count=183
=============avishek_10bitcounter : New Iteration===========
Instance : 1

Inside foo before eval.....
clk=1
rst=0
count=183

Inside foo after eval.....
clk=0
rst=0
count=183
=============avishek_10bitcounter : New Iteration===========
Instance : 1

Inside foo before eval.....
clk=0
rst=0
count=183

Inside foo after eval.....
clk=1
rst=0
count=184
=============avishek_10bitcounter : New Iteration===========
Instance : 1

Inside foo before eval.....
clk=1
rst=0
count=184

Inside foo after eval.....
clk=1
rst=0
count=184
=============avishek_10bitcounter : New Iteration===========
Instance : 1

Inside foo before eval.....
clk=1
rst=0
count=184

Inside foo after eval.....
clk=1
rst=0
count=184
=============avishek_10bitcounter : New Iteration===========
Instance : 1

Inside foo before eval.....
clk=1
rst=0
count=184

Inside foo after eval.....
clk=0
rst=0
count=184
=============avishek_10bitcounter : New Iteration===========
Instance : 1

Inside foo before eval.....
clk=0
rst=0
count=184

Inside foo after eval.....
clk=1
rst=0
count=185
=============avishek_10bitcounter : New Iteration===========
Instance : 1

Inside foo before eval.....
clk=1
rst=0
count=185

Inside foo after eval.....
clk=1
rst=0
count=185
=============avishek_10bitcounter : New Iteration===========
Instance : 1

Inside foo before eval.....
clk=1
rst=0
count=185

Inside foo after eval.....
clk=1
rst=0
count=185
=============avishek_10bitcounter : New Iteration===========
Instance : 1

Inside foo before eval.....
clk=1
rst=0
count=185

Inside foo after eval.....
clk=0
rst=0
count=185
=============avishek_10bitcounter : New Iteration===========
Instance : 1

Inside foo before eval.....
clk=0
rst=0
count=185

Inside foo after eval.....
clk=1
rst=0
count=186
=============avishek_10bitcounter : New Iteration===========
Instance : 1

Inside foo before eval.....
clk=1
rst=0
count=186

Inside foo after eval.....
clk=1
rst=0
count=186
=============avishek_10bitcounter : New Iteration===========
Instance : 1

Inside foo before eval.....
clk=1
rst=0
count=186

Inside foo after eval.....
clk=1
rst=0
count=186
=============avishek_10bitcounter : New Iteration===========
Instance : 1

Inside foo before eval.....
clk=1
rst=0
count=186

Inside foo after eval.....
clk=0
rst=0
count=186
=============avishek_10bitcounter : New Iteration===========
Instance : 1

Inside foo before eval.....
clk=0
rst=0
count=186

Inside foo after eval.....
clk=1
rst=0
count=187
=============avishek_10bitcounter : New Iteration===========
Instance : 1

Inside foo before eval.....
clk=1
rst=0
count=187

Inside foo after eval.....
clk=1
rst=0
count=187
=============avishek_10bitcounter : New Iteration===========
Instance : 1

Inside foo before eval.....
clk=1
rst=0
count=187

Inside foo after eval.....
clk=1
rst=0
count=187
=============avishek_10bitcounter : New Iteration===========
Instance : 1

Inside foo before eval.....
clk=1
rst=0
count=187

Inside foo after eval.....
clk=0
rst=0
count=187
=============avishek_10bitcounter : New Iteration===========
Instance : 1

Inside foo before eval.....
clk=0
rst=0
count=187

Inside foo after eval.....
clk=1
rst=0
count=188
=============avishek_10bitcounter : New Iteration===========
Instance : 1

Inside foo before eval.....
clk=1
rst=0
count=188

Inside foo after eval.....
clk=1
rst=0
count=188
=============avishek_10bitcounter : New Iteration===========
Instance : 1

Inside foo before eval.....
clk=1
rst=0
count=188

Inside foo after eval.....
clk=1
rst=0
count=188
=============avishek_10bitcounter : New Iteration===========
Instance : 1

Inside foo before eval.....
clk=1
rst=0
count=188

Inside foo after eval.....
clk=0
rst=0
count=188
=============avishek_10bitcounter : New Iteration===========
Instance : 1

Inside foo before eval.....
clk=0
rst=0
count=188

Inside foo after eval.....
clk=1
rst=0
count=189
=============avishek_10bitcounter : New Iteration===========
Instance : 1

Inside foo before eval.....
clk=1
rst=0
count=189

Inside foo after eval.....
clk=1
rst=0
count=189
=============avishek_10bitcounter : New Iteration===========
Instance : 1

Inside foo before eval.....
clk=1
rst=0
count=189

Inside foo after eval.....
clk=1
rst=0
count=189
=============avishek_10bitcounter : New Iteration===========
Instance : 1

Inside foo before eval.....
clk=1
rst=0
count=189

Inside foo after eval.....
clk=0
rst=0
count=189
=============avishek_10bitcounter : New Iteration===========
Instance : 1

Inside foo before eval.....
clk=0
rst=0
count=189

Inside foo after eval.....
clk=1
rst=0
count=190
=============avishek_10bitcounter : New Iteration===========
Instance : 1

Inside foo before eval.....
clk=1
rst=0
count=190

Inside foo after eval.....
clk=1
rst=0
count=190
=============avishek_10bitcounter : New Iteration===========
Instance : 1

Inside foo before eval.....
clk=1
rst=0
count=190

Inside foo after eval.....
clk=1
rst=0
count=190
=============avishek_10bitcounter : New Iteration===========
Instance : 1

Inside foo before eval.....
clk=1
rst=0
count=190

Inside foo after eval.....
clk=0
rst=0
count=190
=============avishek_10bitcounter : New Iteration===========
Instance : 1

Inside foo before eval.....
clk=0
rst=0
count=190

Inside foo after eval.....
clk=1
rst=0
count=191
=============avishek_10bitcounter : New Iteration===========
Instance : 1

Inside foo before eval.....
clk=1
rst=0
count=191

Inside foo after eval.....
clk=1
rst=0
count=191
=============avishek_10bitcounter : New Iteration===========
Instance : 1

Inside foo before eval.....
clk=1
rst=0
count=191

Inside foo after eval.....
clk=1
rst=0
count=191
=============avishek_10bitcounter : New Iteration===========
Instance : 1

Inside foo before eval.....
clk=1
rst=0
count=191

Inside foo after eval.....
clk=0
rst=0
count=191
=============avishek_10bitcounter : New Iteration===========
Instance : 1

Inside foo before eval.....
clk=0
rst=0
count=191

Inside foo after eval.....
clk=1
rst=0
count=192
=============avishek_10bitcounter : New Iteration===========
Instance : 1

Inside foo before eval.....
clk=1
rst=0
count=192

Inside foo after eval.....
clk=1
rst=0
count=192
=============avishek_10bitcounter : New Iteration===========
Instance : 1

Inside foo before eval.....
clk=1
rst=0
count=192

Inside foo after eval.....
clk=1
rst=0
count=192
=============avishek_10bitcounter : New Iteration===========
Instance : 1

Inside foo before eval.....
clk=1
rst=0
count=192

Inside foo after eval.....
clk=0
rst=0
count=192
=============avishek_10bitcounter : New Iteration===========
Instance : 1

Inside foo before eval.....
clk=0
rst=0
count=192

Inside foo after eval.....
clk=1
rst=0
count=193
=============avishek_10bitcounter : New Iteration===========
Instance : 1

Inside foo before eval.....
clk=1
rst=0
count=193

Inside foo after eval.....
clk=1
rst=0
count=193
=============avishek_10bitcounter : New Iteration===========
Instance : 1

Inside foo before eval.....
clk=1
rst=0
count=193

Inside foo after eval.....
clk=1
rst=0
count=193
=============avishek_10bitcounter : New Iteration===========
Instance : 1

Inside foo before eval.....
clk=1
rst=0
count=193

Inside foo after eval.....
clk=0
rst=0
count=193
=============avishek_10bitcounter : New Iteration===========
Instance : 1

Inside foo before eval.....
clk=0
rst=0
count=193

Inside foo after eval.....
clk=1
rst=0
count=194
=============avishek_10bitcounter : New Iteration===========
Instance : 1

Inside foo before eval.....
clk=1
rst=0
count=194

Inside foo after eval.....
clk=1
rst=0
count=194
=============avishek_10bitcounter : New Iteration===========
Instance : 1

Inside foo before eval.....
clk=1
rst=0
count=194

Inside foo after eval.....
clk=1
rst=0
count=194
=============avishek_10bitcounter : New Iteration===========
Instance : 1

Inside foo before eval.....
clk=1
rst=0
count=194

Inside foo after eval.....
clk=0
rst=0
count=194
=============avishek_10bitcounter : New Iteration===========
Instance : 1

Inside foo before eval.....
clk=0
rst=0
count=194

Inside foo after eval.....
clk=1
rst=0
count=195
=============avishek_10bitcounter : New Iteration===========
Instance : 1

Inside foo before eval.....
clk=1
rst=0
count=195

Inside foo after eval.....
clk=1
rst=0
count=195
=============avishek_10bitcounter : New Iteration===========
Instance : 1

Inside foo before eval.....
clk=1
rst=0
count=195

Inside foo after eval.....
clk=1
rst=0
count=195
=============avishek_10bitcounter : New Iteration===========
Instance : 1

Inside foo before eval.....
clk=1
rst=0
count=195

Inside foo after eval.....
clk=0
rst=0
count=195
=============avishek_10bitcounter : New Iteration===========
Instance : 1

Inside foo before eval.....
clk=0
rst=0
count=195

Inside foo after eval.....
clk=1
rst=0
count=196
=============avishek_10bitcounter : New Iteration===========
Instance : 1

Inside foo before eval.....
clk=1
rst=0
count=196

Inside foo after eval.....
clk=1
rst=0
count=196
=============avishek_10bitcounter : New Iteration===========
Instance : 1

Inside foo before eval.....
clk=1
rst=0
count=196

Inside foo after eval.....
clk=1
rst=0
count=196
=============avishek_10bitcounter : New Iteration===========
Instance : 1

Inside foo before eval.....
clk=1
rst=0
count=196

Inside foo after eval.....
clk=0
rst=0
count=196
=============avishek_10bitcounter : New Iteration===========
Instance : 1

Inside foo before eval.....
clk=0
rst=0
count=196

Inside foo after eval.....
clk=1
rst=0
count=197
=============avishek_10bitcounter : New Iteration===========
Instance : 1

Inside foo before eval.....
clk=1
rst=0
count=197

Inside foo after eval.....
clk=1
rst=0
count=197
=============avishek_10bitcounter : New Iteration===========
Instance : 1

Inside foo before eval.....
clk=1
rst=0
count=197

Inside foo after eval.....
clk=1
rst=0
count=197
=============avishek_10bitcounter : New Iteration===========
Instance : 1

Inside foo before eval.....
clk=1
rst=0
count=197

Inside foo after eval.....
clk=0
rst=0
count=197
=============avishek_10bitcounter : New Iteration===========
Instance : 1

Inside foo before eval.....
clk=0
rst=0
count=197

Inside foo after eval.....
clk=1
rst=0
count=198
=============avishek_10bitcounter : New Iteration===========
Instance : 1

Inside foo before eval.....
clk=1
rst=0
count=198

Inside foo after eval.....
clk=1
rst=0
count=198
=============avishek_10bitcounter : New Iteration===========
Instance : 1

Inside foo before eval.....
clk=1
rst=0
count=198

Inside foo after eval.....
clk=1
rst=0
count=198
=============avishek_10bitcounter : New Iteration===========
Instance : 1

Inside foo before eval.....
clk=1
rst=0
count=198

Inside foo after eval.....
clk=0
rst=0
count=198
=============avishek_10bitcounter : New Iteration===========
Instance : 1

Inside foo before eval.....
clk=0
rst=0
count=198

Inside foo after eval.....
clk=1
rst=0
count=199
=============avishek_10bitcounter : New Iteration===========
Instance : 1

Inside foo before eval.....
clk=1
rst=0
count=199

Inside foo after eval.....
clk=1
rst=0
count=199
=============avishek_10bitcounter : New Iteration===========
Instance : 1

Inside foo before eval.....
clk=1
rst=0
count=199

Inside foo after eval.....
clk=1
rst=0
count=199
=============avishek_10bitcounter : New Iteration===========
Instance : 1

Inside foo before eval.....
clk=1
rst=0
count=199

Inside foo after eval.....
clk=0
rst=0
count=199
=============avishek_10bitcounter : New Iteration===========
Instance : 1

Inside foo before eval.....
clk=0
rst=0
count=199

Inside foo after eval.....
clk=1
rst=0
count=200
=============avishek_10bitcounter : New Iteration===========
Instance : 1

Inside foo before eval.....
clk=1
rst=0
count=200

Inside foo after eval.....
clk=1
rst=0
count=200
=============avishek_10bitcounter : New Iteration===========
Instance : 1

Inside foo before eval.....
clk=1
rst=0
count=200

Inside foo after eval.....
clk=1
rst=0
count=200
=============avishek_10bitcounter : New Iteration===========
Instance : 1

Inside foo before eval.....
clk=1
rst=0
count=200

Inside foo after eval.....
clk=0
rst=0
count=200

No. of Data Rows : 13001

Total analysis time (seconds) = 0.433816

Total CPU time (seconds) = 11.200 

Total DRAM available = 257855.305 MB.
DRAM currently available = 233621.688 MB.
Maximum ngspice program size =  397.516 MB.
Current ngspice program size =  331.320 MB.

Shared ngspice pages =    9.496 MB.
Text (code) pages =    6.285 MB.
Stack = 0 bytes.
Library pages =  325.191 MB.

